
                    3D
 Schrodinger Suite 2019-4.
 69 71  0  0  1  0            999 V2000
  -22.2746   -2.0722  -30.7570 C   0  0  0  0  0  0
  -23.3610   -2.9975  -30.1849 C   0  0  0  0  0  0
  -24.7310   -2.2965  -30.1840 C   0  0  0  0  0  0
  -23.0079   -3.5562  -28.7813 C   0  0  0  0  0  0
  -21.6430   -4.2923  -28.6677 C   0  0  2  0  0  0
  -21.5840   -5.3589  -29.6830 N   0  0  0  0  0  0
  -20.3755   -5.9205  -30.0663 C   0  0  0  0  0  0
  -19.2544   -5.5361  -29.7251 O   0  0  0  0  0  0
  -20.6390   -6.9648  -30.8910 O   0  0  0  0  0  0
  -19.6678   -7.6583  -31.6881 C   0  0  0  0  0  0
  -18.5270   -8.2851  -30.8508 C   0  0  0  0  0  0
  -19.1232   -6.7078  -32.7749 C   0  0  0  0  0  0
  -20.4681   -8.7903  -32.3599 C   0  0  0  0  0  0
  -21.4479   -4.8750  -27.2460 C   0  0  0  0  0  0
  -22.0013   -5.9359  -26.9473 O   0  0  0  0  0  0
  -20.6685   -4.1813  -26.3980 N   0  0  0  0  0  0
  -20.2504   -4.6600  -25.0686 C   0  0  1  0  0  0
  -18.7243   -4.5751  -24.8633 C   0  0  0  0  0  0
  -17.9223   -5.6433  -25.6483 C   0  0  2  0  0  0
  -18.1388   -7.0957  -25.2451 C   0  0  0  0  0  0
  -16.7954   -7.7484  -25.5354 C   0  0  0  0  0  0
  -15.8599   -6.6391  -25.4061 N   0  0  0  0  0  0
  -16.4222   -5.4212  -25.4466 C   0  0  0  0  0  0
  -15.8589   -4.3360  -25.4060 O   0  0  0  0  0  0
  -21.0135   -3.8003  -24.0638 C   0  0  0  0  0  0
  -20.5247   -2.7437  -23.6528 O   0  0  0  0  0  0
  -22.3361   -4.2241  -23.5960 C   0  0  0  0  0  0
  -23.2502   -3.4258  -23.1110 N   0  0  0  0  0  0
  -24.3723   -4.1000  -22.7470 C   0  0  0  0  0  0
  -25.5190   -3.5089  -22.2060 C   0  0  0  0  0  0
  -26.5823   -4.3362  -21.8460 C   0  0  0  0  0  0
  -26.5339   -5.7147  -22.0407 C   0  0  0  0  0  0
  -25.4085   -6.3259  -22.5932 C   0  0  0  0  0  0
  -24.3267   -5.5052  -22.9403 C   0  0  0  0  0  0
  -22.7761   -5.9288  -23.6322 S   0  0  0  0  0  0
  -21.4647   -2.6497  -31.2055 H   0  0  0  0  0  0
  -22.6726   -1.4150  -31.5316 H   0  0  0  0  0  0
  -21.8591   -1.4344  -29.9778 H   0  0  0  0  0  0
  -23.4524   -3.8455  -30.8658 H   0  0  0  0  0  0
  -25.3218   -2.5418  -29.3005 H   0  0  0  0  0  0
  -24.6345   -1.2093  -30.2113 H   0  0  0  0  0  0
  -25.3113   -2.5902  -31.0567 H   0  0  0  0  0  0
  -23.8127   -4.2242  -28.4652 H   0  0  0  0  0  0
  -23.0218   -2.7268  -28.0707 H   0  0  0  0  0  0
  -20.8598   -3.5575  -28.8696 H   0  0  0  0  0  0
  -22.4408   -5.8001  -29.9797 H   0  0  0  0  0  0
  -17.8786   -8.9059  -31.4695 H   0  0  0  0  0  0
  -17.8884   -7.5362  -30.3822 H   0  0  0  0  0  0
  -18.9260   -8.9182  -30.0589 H   0  0  0  0  0  0
  -18.3843   -7.1973  -33.4111 H   0  0  0  0  0  0
  -19.9372   -6.3508  -33.4033 H   0  0  0  0  0  0
  -18.6593   -5.8201  -32.3454 H   0  0  0  0  0  0
  -19.8376   -9.3954  -33.0127 H   0  0  0  0  0  0
  -20.9117   -9.4566  -31.6185 H   0  0  0  0  0  0
  -21.2850   -8.3969  -32.9659 H   0  0  0  0  0  0
  -20.2551   -3.3151  -26.7160 H   0  0  0  0  0  0
  -20.5032   -5.7121  -24.9389 H   0  0  0  0  0  0
  -18.4907   -4.6877  -23.8060 H   0  0  0  0  0  0
  -18.3842   -3.5734  -25.1371 H   0  0  0  0  0  0
  -18.1131   -5.5049  -26.7145 H   0  0  0  0  0  0
  -18.9610   -7.5801  -25.7735 H   0  0  0  0  0  0
  -18.3624   -7.1676  -24.1789 H   0  0  0  0  0  0
  -16.7528   -8.1458  -26.5515 H   0  0  0  0  0  0
  -16.5616   -8.5552  -24.8393 H   0  0  0  0  0  0
  -14.8577   -6.7681  -25.5470 H   0  0  0  0  0  0
  -25.5683   -2.4430  -22.0397 H   0  0  0  0  0  0
  -27.4589   -3.8896  -21.4069 H   0  0  0  0  0  0
  -27.3828   -6.3193  -21.7545 H   0  0  0  0  0  0
  -25.3731   -7.3972  -22.7443 H   0  0  0  0  0  0
  1  2  1  0  0  0
  1 36  1  0  0  0
  1 37  1  0  0  0
  1 38  1  0  0  0
  2  3  1  0  0  0
  2  4  1  0  0  0
  2 39  1  0  0  0
  3 40  1  0  0  0
  3 41  1  0  0  0
  3 42  1  0  0  0
  4  5  1  0  0  0
  4 43  1  0  0  0
  4 44  1  0  0  0
  5  6  1  0  0  0
  5 14  1  0  0  0
  5 45  1  0  0  0
  6  7  1  0  0  0
  6 46  1  0  0  0
  7  8  2  0  0  0
  7  9  1  0  0  0
  9 10  1  0  0  0
 10 11  1  0  0  0
 10 12  1  0  0  0
 10 13  1  0  0  0
 11 47  1  0  0  0
 11 48  1  0  0  0
 11 49  1  0  0  0
 12 50  1  0  0  0
 12 51  1  0  0  0
 12 52  1  0  0  0
 13 53  1  0  0  0
 13 54  1  0  0  0
 13 55  1  0  0  0
 14 15  2  0  0  0
 14 16  1  0  0  0
 16 17  1  0  0  0
 16 56  1  0  0  0
 17 18  1  0  0  0
 17 25  1  0  0  0
 17 57  1  0  0  0
 18 19  1  0  0  0
 18 58  1  0  0  0
 18 59  1  0  0  0
 19 23  1  0  0  0
 19 20  1  0  0  0
 19 60  1  0  0  0
 20 21  1  0  0  0
 20 61  1  0  0  0
 20 62  1  0  0  0
 21 22  1  0  0  0
 21 63  1  0  0  0
 21 64  1  0  0  0
 22 23  1  0  0  0
 22 65  1  0  0  0
 23 24  2  0  0  0
 25 26  2  0  0  0
 25 27  1  0  0  0
 27 35  1  0  0  0
 27 28  2  0  0  0
 28 29  1  0  0  0
 29 34  2  0  0  0
 29 30  1  0  0  0
 30 31  2  0  0  0
 30 66  1  0  0  0
 31 32  1  0  0  0
 31 67  1  0  0  0
 32 33  2  0  0  0
 32 68  1  0  0  0
 33 34  1  0  0  0
 33 69  1  0  0  0
 34 35  1  0  0  0
M  END
$$$$
