
                    3D
 Schrodinger Suite 2019-4.
 53 53  0  0  1  0            999 V2000
  -20.1817   -9.0411  -30.4398 C   0  0  0  0  0  0
  -19.0510   -9.8382  -30.7011 C   0  0  0  0  0  0
  -18.1585   -9.4774  -31.7289 C   0  0  0  0  0  0
  -18.3910   -8.3151  -32.4888 C   0  0  0  0  0  0
  -19.5183   -7.5097  -32.2278 C   0  0  0  0  0  0
  -20.4213   -7.8857  -31.2068 C   0  0  0  0  0  0
  -19.7339   -6.2560  -33.0621 C   0  0  0  0  0  0
  -20.8389   -5.4641  -32.6467 O   0  0  0  0  0  0
  -20.8940   -4.9729  -31.3981 C   0  0  0  0  0  0
  -20.0928   -5.2219  -30.4978 O   0  0  0  0  0  0
  -22.0346   -4.1995  -31.3000 N   0  0  0  0  0  0
  -22.5744   -3.5910  -30.0892 C   0  0  2  0  0  0
  -22.1564   -4.4894  -28.9084 C   0  0  0  0  0  0
  -21.8236   -5.6574  -29.1052 O   0  0  0  0  0  0
  -22.1325   -3.9232  -27.6907 N   0  0  0  0  0  0
  -21.4368   -4.4855  -26.5308 C   0  0  2  0  0  0
  -22.1389   -4.1723  -25.1922 C   0  0  0  0  0  0
  -23.6546   -3.9692  -25.1803 C   0  0  0  0  0  0
  -24.1368   -3.8416  -23.9465 F   0  0  0  0  0  0
  -21.5533   -4.1484  -24.1133 O   0  0  0  0  0  0
  -19.9324   -4.1296  -26.5901 C   0  0  0  0  0  0
  -19.0315   -4.5727  -25.4290 C   0  0  0  0  0  0
  -17.9468   -5.2210  -25.8727 O   0  0  0  0  0  0
  -16.9913   -5.6993  -24.9424 C   0  0  0  0  0  0
  -19.2945   -4.3493  -24.2468 O   0  0  0  0  0  0
  -24.1213   -3.5462  -30.2442 C   0  0  0  0  0  0
  -24.5572   -2.9292  -31.5827 C   0  0  0  0  0  0
  -24.8144   -2.7877  -29.1139 C   0  0  0  0  0  0
  -20.8657   -9.3155  -29.6501 H   0  0  0  0  0  0
  -18.8682  -10.7256  -30.1129 H   0  0  0  0  0  0
  -17.2887  -10.0858  -31.9290 H   0  0  0  0  0  0
  -17.6937   -8.0399  -33.2670 H   0  0  0  0  0  0
  -21.2958   -7.2885  -30.9934 H   0  0  0  0  0  0
  -19.8962   -6.5557  -34.0977 H   0  0  0  0  0  0
  -18.8205   -5.6644  -33.0459 H   0  0  0  0  0  0
  -22.5966   -4.1449  -32.1361 H   0  0  0  0  0  0
  -22.1768   -2.5829  -29.9619 H   0  0  0  0  0  0
  -22.4483   -2.9670  -27.6043 H   0  0  0  0  0  0
  -21.4432   -5.5712  -26.6269 H   0  0  0  0  0  0
  -24.1528   -4.8224  -25.6394 H   0  0  0  0  0  0
  -23.9274   -3.0752  -25.7356 H   0  0  0  0  0  0
  -19.8256   -3.0505  -26.7007 H   0  0  0  0  0  0
  -19.5110   -4.5648  -27.4860 H   0  0  0  0  0  0
  -16.1808   -6.2087  -25.4634 H   0  0  0  0  0  0
  -16.5615   -4.8751  -24.3727 H   0  0  0  0  0  0
  -17.4472   -6.4066  -24.2480 H   0  0  0  0  0  0
  -24.5036   -4.5647  -30.2116 H   0  0  0  0  0  0
  -25.6433   -2.9381  -31.6811 H   0  0  0  0  0  0
  -24.2308   -1.8931  -31.6409 H   0  0  0  0  0  0
  -24.1544   -3.4660  -32.4415 H   0  0  0  0  0  0
  -25.8895   -2.7215  -29.2816 H   0  0  0  0  0  0
  -24.6740   -3.2875  -28.1568 H   0  0  0  0  0  0
  -24.4221   -1.7746  -29.0421 H   0  0  0  0  0  0
  1  6  1  0  0  0
  1  2  2  0  0  0
  1 29  1  0  0  0
  2  3  1  0  0  0
  2 30  1  0  0  0
  3  4  2  0  0  0
  3 31  1  0  0  0
  4  5  1  0  0  0
  4 32  1  0  0  0
  5  6  2  0  0  0
  5  7  1  0  0  0
  6 33  1  0  0  0
  7  8  1  0  0  0
  7 34  1  0  0  0
  7 35  1  0  0  0
  8  9  1  0  0  0
  9 10  2  0  0  0
  9 11  1  0  0  0
 11 12  1  0  0  0
 11 36  1  0  0  0
 12 13  1  0  0  0
 12 26  1  0  0  0
 12 37  1  0  0  0
 13 14  2  0  0  0
 13 15  1  0  0  0
 15 16  1  0  0  0
 15 38  1  0  0  0
 16 17  1  0  0  0
 16 21  1  0  0  0
 16 39  1  0  0  0
 17 18  1  0  0  0
 17 20  2  0  0  0
 18 19  1  0  0  0
 18 40  1  0  0  0
 18 41  1  0  0  0
 21 22  1  0  0  0
 21 42  1  0  0  0
 21 43  1  0  0  0
 22 23  1  0  0  0
 22 25  2  0  0  0
 23 24  1  0  0  0
 24 44  1  0  0  0
 24 45  1  0  0  0
 24 46  1  0  0  0
 26 27  1  0  0  0
 26 28  1  0  0  0
 26 47  1  0  0  0
 27 48  1  0  0  0
 27 49  1  0  0  0
 27 50  1  0  0  0
 28 51  1  0  0  0
 28 52  1  0  0  0
 28 53  1  0  0  0
M  END
$$$$
