
                    3D
 Schrodinger Suite 2019-4.
 97 98  0  0  1  0            999 V2000
  -25.3238   -4.4313  -21.3011 C   0  0  0  0  0  0
  -24.5468   -3.1330  -21.4982 C   0  0  0  0  0  0
  -23.5182   -3.3386  -22.4487 O   0  0  0  0  0  0
  -23.4877   -2.5906  -23.5599 C   0  0  0  0  0  0
  -24.1796   -1.5957  -23.7501 O   0  0  0  0  0  0
  -22.5316   -3.0584  -24.5590 C   0  0  0  0  0  0
  -21.4919   -3.8658  -24.2909 C   0  0  0  0  0  0
  -20.5420   -4.4281  -25.3321 C   0  0  2  0  0  0
  -19.0477   -4.2573  -25.0251 C   0  0  0  0  0  0
  -18.2292   -5.3043  -25.8128 C   0  0  2  0  0  0
  -18.5012   -6.7562  -25.3778 C   0  0  0  0  0  0
  -17.1386   -7.4478  -25.3220 C   0  0  0  0  0  0
  -16.1866   -6.3626  -25.3312 N   0  0  0  0  0  0
  -16.7288   -5.1856  -25.6244 C   0  0  0  0  0  0
  -16.1064   -4.1423  -25.7770 O   0  0  0  0  0  0
  -20.8188   -3.9761  -26.6919 N   0  0  0  0  0  0
  -21.6309   -4.6335  -27.5236 C   0  0  0  0  0  0
  -22.3283   -5.5894  -27.1745 O   0  0  0  0  0  0
  -21.6389   -4.1728  -28.9796 C   0  0  2  0  0  0
  -23.0118   -3.5511  -29.2300 C   0  0  0  0  0  0
  -23.2873   -3.1555  -30.6800 C   0  0  0  0  0  0
  -24.5483   -2.2877  -30.8098 C   0  0  0  0  0  0
  -25.6894   -2.7523  -29.9134 C   0  0  0  0  0  0
  -25.0277   -2.3050  -32.2480 C   0  0  0  0  0  0
  -21.4424   -5.3602  -29.8019 N   0  0  0  0  0  0
  -20.2576   -5.9811  -29.9123 C   0  0  0  0  0  0
  -19.2053   -5.5137  -29.4728 O   0  0  0  0  0  0
  -20.2612   -7.3443  -30.5991 C   0  0  1  0  0  0
  -19.3975   -7.1994  -31.7429 N   0  0  0  0  0  0
  -19.7519   -7.4991  -32.9869 C   0  0  0  0  0  0
  -20.8065   -8.0650  -33.2828 O   0  0  0  0  0  0
  -18.7741   -7.0101  -34.0437 C   0  0  1  0  0  0
  -18.8444   -7.9510  -35.1465 N   0  0  0  0  0  0
  -18.1887   -9.1046  -35.3004 C   0  0  0  0  0  0
  -17.2421   -9.4644  -34.6053 O   0  0  0  0  0  0
  -18.6826   -9.8846  -36.4454 C   0  0  0  0  0  0
  -18.0343  -10.4404  -37.5143 C   0  0  0  0  0  0
  -19.0400  -11.0008  -38.3499 C   0  0  0  0  0  0
  -20.2269  -10.7794  -37.7149 C   0  0  0  0  0  0
  -20.0237  -10.1085  -36.5502 O   0  0  0  0  0  0
  -19.2740   -5.6132  -34.5097 C   0  0  0  0  0  0
  -18.4311   -5.1131  -35.6718 C   0  0  0  0  0  0
  -19.2974   -4.5386  -33.4087 C   0  0  0  0  0  0
  -19.7601   -8.5134  -29.7229 C   0  0  0  0  0  0
  -19.6073   -9.8262  -30.5178 C   0  0  0  0  0  0
  -20.6981   -8.7366  -28.5335 C   0  0  0  0  0  0
  -26.1132   -4.3171  -20.5590 H   0  0  0  0  0  0
  -25.7888   -4.7424  -22.2372 H   0  0  0  0  0  0
  -24.6630   -5.2335  -20.9700 H   0  0  0  0  0  0
  -24.0709   -2.8113  -20.5764 H   0  0  0  0  0  0
  -25.2578   -2.3583  -21.7848 H   0  0  0  0  0  0
  -22.7063   -2.7141  -25.5655 H   0  0  0  0  0  0
  -21.3045   -4.1909  -23.2775 H   0  0  0  0  0  0
  -20.7557   -5.4962  -25.2685 H   0  0  0  0  0  0
  -18.8727   -4.3861  -23.9561 H   0  0  0  0  0  0
  -18.7203   -3.2467  -25.2699 H   0  0  0  0  0  0
  -18.4077   -5.2017  -26.8833 H   0  0  0  0  0  0
  -19.1817   -7.2677  -26.0583 H   0  0  0  0  0  0
  -18.9533   -6.7792  -24.3859 H   0  0  0  0  0  0
  -16.9659   -8.0632  -26.2034 H   0  0  0  0  0  0
  -17.0250   -8.0685  -24.4331 H   0  0  0  0  0  0
  -15.1892   -6.5148  -25.2265 H   0  0  0  0  0  0
  -20.2984   -3.1840  -27.0434 H   0  0  0  0  0  0
  -20.8560   -3.4428  -29.1752 H   0  0  0  0  0  0
  -23.1052   -2.6618  -28.6023 H   0  0  0  0  0  0
  -23.7893   -4.2424  -28.9012 H   0  0  0  0  0  0
  -23.3964   -4.0641  -31.2741 H   0  0  0  0  0  0
  -22.4323   -2.6169  -31.0916 H   0  0  0  0  0  0
  -24.2953   -1.2617  -30.5369 H   0  0  0  0  0  0
  -26.5938   -2.2066  -30.1533 H   0  0  0  0  0  0
  -25.8611   -3.8117  -30.0713 H   0  0  0  0  0  0
  -25.4888   -2.6055  -28.8556 H   0  0  0  0  0  0
  -25.8224   -1.5755  -32.4066 H   0  0  0  0  0  0
  -24.1850   -2.0804  -32.8952 H   0  0  0  0  0  0
  -25.4071   -3.2868  -32.5339 H   0  0  0  0  0  0
  -22.2646   -5.7902  -30.1995 H   0  0  0  0  0  0
  -21.2847   -7.5648  -30.9110 H   0  0  0  0  0  0
  -18.5132   -6.7316  -31.5933 H   0  0  0  0  0  0
  -17.7565   -6.9556  -33.6525 H   0  0  0  0  0  0
  -19.6262   -7.8008  -35.7753 H   0  0  0  0  0  0
  -16.9694  -10.4172  -37.6917 H   0  0  0  0  0  0
  -18.9114  -11.5087  -39.2945 H   0  0  0  0  0  0
  -21.2553  -11.0173  -37.9437 H   0  0  0  0  0  0
  -20.3006   -5.6877  -34.8676 H   0  0  0  0  0  0
  -18.6343   -4.0637  -35.8678 H   0  0  0  0  0  0
  -17.3722   -5.2167  -35.4517 H   0  0  0  0  0  0
  -18.6460   -5.6847  -36.5726 H   0  0  0  0  0  0
  -19.6156   -3.5796  -33.8146 H   0  0  0  0  0  0
  -20.0023   -4.7630  -32.6098 H   0  0  0  0  0  0
  -18.3070   -4.4172  -32.9729 H   0  0  0  0  0  0
  -18.7770   -8.2552  -29.3270 H   0  0  0  0  0  0
  -19.3581  -10.6604  -29.8629 H   0  0  0  0  0  0
  -20.5325  -10.0827  -31.0350 H   0  0  0  0  0  0
  -18.8125   -9.7612  -31.2612 H   0  0  0  0  0  0
  -20.4039   -9.6047  -27.9441 H   0  0  0  0  0  0
  -20.7028   -7.8769  -27.8633 H   0  0  0  0  0  0
  -21.7189   -8.9040  -28.8782 H   0  0  0  0  0  0
  1  2  1  0  0  0
  1 47  1  0  0  0
  1 48  1  0  0  0
  1 49  1  0  0  0
  2  3  1  0  0  0
  2 50  1  0  0  0
  2 51  1  0  0  0
  3  4  1  0  0  0
  4  5  2  0  0  0
  4  6  1  0  0  0
  6  7  2  0  0  0
  6 52  1  0  0  0
  7  8  1  0  0  0
  7 53  1  0  0  0
  8  9  1  0  0  0
  8 16  1  0  0  0
  8 54  1  0  0  0
  9 10  1  0  0  0
  9 55  1  0  0  0
  9 56  1  0  0  0
 10 14  1  0  0  0
 10 11  1  0  0  0
 10 57  1  0  0  0
 11 12  1  0  0  0
 11 58  1  0  0  0
 11 59  1  0  0  0
 12 13  1  0  0  0
 12 60  1  0  0  0
 12 61  1  0  0  0
 13 14  1  0  0  0
 13 62  1  0  0  0
 14 15  2  0  0  0
 16 17  1  0  0  0
 16 63  1  0  0  0
 17 18  2  0  0  0
 17 19  1  0  0  0
 19 20  1  0  0  0
 19 25  1  0  0  0
 19 64  1  0  0  0
 20 21  1  0  0  0
 20 65  1  0  0  0
 20 66  1  0  0  0
 21 22  1  0  0  0
 21 67  1  0  0  0
 21 68  1  0  0  0
 22 23  1  0  0  0
 22 24  1  0  0  0
 22 69  1  0  0  0
 23 70  1  0  0  0
 23 71  1  0  0  0
 23 72  1  0  0  0
 24 73  1  0  0  0
 24 74  1  0  0  0
 24 75  1  0  0  0
 25 26  1  0  0  0
 25 76  1  0  0  0
 26 27  2  0  0  0
 26 28  1  0  0  0
 28 29  1  0  0  0
 28 44  1  0  0  0
 28 77  1  0  0  0
 29 30  1  0  0  0
 29 78  1  0  0  0
 30 31  2  0  0  0
 30 32  1  0  0  0
 32 33  1  0  0  0
 32 41  1  0  0  0
 32 79  1  0  0  0
 33 34  1  0  0  0
 33 80  1  0  0  0
 34 35  2  0  0  0
 34 36  1  0  0  0
 36 40  1  0  0  0
 36 37  2  0  0  0
 37 38  1  0  0  0
 37 81  1  0  0  0
 38 39  2  0  0  0
 38 82  1  0  0  0
 39 40  1  0  0  0
 39 83  1  0  0  0
 41 42  1  0  0  0
 41 43  1  0  0  0
 41 84  1  0  0  0
 42 85  1  0  0  0
 42 86  1  0  0  0
 42 87  1  0  0  0
 43 88  1  0  0  0
 43 89  1  0  0  0
 43 90  1  0  0  0
 44 45  1  0  0  0
 44 46  1  0  0  0
 44 91  1  0  0  0
 45 92  1  0  0  0
 45 93  1  0  0  0
 45 94  1  0  0  0
 46 95  1  0  0  0
 46 96  1  0  0  0
 46 97  1  0  0  0
M  END
$$$$
