
                    3D
 Schrodinger Suite 2019-4.
 81 82  0  0  1  0            999 V2000
  -13.9569   -3.3235  -27.4286 C   0  0  0  0  0  0
  -14.1688   -4.3705  -26.3461 C   0  0  0  0  0  0
  -13.2761   -5.1689  -26.0629 O   0  0  0  0  0  0
  -15.3936   -4.4253  -25.8228 N   0  0  0  0  0  0
  -15.9161   -5.6163  -25.1717 C   0  0  1  0  0  0
  -16.6538   -5.2279  -23.8827 C   0  0  0  0  0  0
  -17.7550   -4.3702  -24.1156 O   0  0  0  0  0  0
  -16.8661   -6.3107  -26.1473 C   0  0  0  0  0  0
  -17.6956   -5.6372  -26.7634 O   0  0  0  0  0  0
  -16.7570   -7.6436  -26.2278 N   0  0  0  0  0  0
  -17.7276   -8.5263  -26.8595 C   0  0  1  0  0  0
  -17.1248   -9.9368  -26.9734 C   0  0  0  0  0  0
  -19.0198   -8.4931  -26.0332 C   0  0  0  0  0  0
  -19.1593   -9.2692  -25.0885 O   0  0  0  0  0  0
  -19.8759   -7.5174  -26.3705 N   0  0  0  0  0  0
  -21.0589   -7.1191  -25.6238 C   0  0  2  0  0  0
  -22.1921   -6.7714  -26.5953 C   0  0  0  0  0  0
  -21.9634   -6.5315  -27.7808 O   0  0  0  0  0  0
  -23.4020   -6.7807  -26.0321 N   0  0  0  0  0  0
  -24.6578   -6.2737  -26.5709 C   0  0  1  0  0  0
  -25.6647   -6.4868  -25.4093 C   0  0  0  0  0  0
  -27.1594   -6.4704  -25.6770 C   0  0  0  0  0  0
  -27.7679   -5.5448  -26.5540 C   0  0  0  0  0  0
  -29.1521   -5.4716  -26.6280 C   0  0  0  0  0  0
  -29.9433   -6.2830  -25.8271 C   0  0  0  0  0  0
  -29.3647   -7.1835  -24.9464 C   0  0  0  0  0  0
  -27.9856   -7.2723  -24.8560 C   0  0  0  0  0  0
  -24.4484   -4.7872  -26.9363 C   0  0  0  0  0  0
  -24.3573   -3.9662  -26.0260 O   0  0  0  0  0  0
  -24.3015   -4.4862  -28.2410 N   0  0  0  0  0  0
  -24.0416   -3.1383  -28.7745 C   0  0  2  0  0  0
  -25.1569   -2.8632  -29.7630 C   0  0  0  0  0  0
  -25.1037   -1.9671  -30.6057 O   0  0  0  0  0  0
  -22.6151   -3.0380  -29.3839 C   0  0  0  0  0  0
  -22.3759   -3.6580  -30.7442 C   0  0  0  0  0  0
  -22.3434   -3.0370  -31.9773 C   0  0  0  0  0  0
  -22.0615   -4.0252  -32.9040 N   0  0  0  0  0  0
  -21.9596   -5.1712  -32.2270 C   0  0  0  0  0  0
  -22.1451   -5.0245  -30.9224 N   0  0  0  0  0  0
  -20.7645   -5.8807  -24.7100 C   0  0  0  0  0  0
  -21.7888   -5.7014  -23.5709 C   0  0  0  0  0  0
  -20.6302   -4.5325  -25.4608 C   0  0  0  0  0  0
  -13.6497   -2.3611  -27.0280 H   0  0  0  0  0  0
  -13.2010   -3.6710  -28.1335 H   0  0  0  0  0  0
  -14.8795   -3.1677  -27.9773 H   0  0  0  0  0  0
  -16.0910   -3.7557  -26.1170 H   0  0  0  0  0  0
  -15.1114   -6.3073  -24.9039 H   0  0  0  0  0  0
  -15.9689   -4.7691  -23.1713 H   0  0  0  0  0  0
  -17.0348   -6.1398  -23.4276 H   0  0  0  0  0  0
  -18.2835   -4.7471  -24.8284 H   0  0  0  0  0  0
  -15.9182   -8.0812  -25.8645 H   0  0  0  0  0  0
  -17.9324   -8.1549  -27.8643 H   0  0  0  0  0  0
  -17.8291  -10.6232  -27.4449 H   0  0  0  0  0  0
  -16.2184   -9.9256  -27.5818 H   0  0  0  0  0  0
  -16.8629  -10.3482  -25.9975 H   0  0  0  0  0  0
  -19.6535   -6.9288  -27.1616 H   0  0  0  0  0  0
  -21.3937   -7.9678  -25.0284 H   0  0  0  0  0  0
  -23.4365   -7.0153  -25.0509 H   0  0  0  0  0  0
  -24.9427   -6.8628  -27.4442 H   0  0  0  0  0  0
  -25.4759   -5.7711  -24.6075 H   0  0  0  0  0  0
  -25.4617   -7.4631  -24.9660 H   0  0  0  0  0  0
  -27.1783   -4.8781  -27.1645 H   0  0  0  0  0  0
  -29.6182   -4.7690  -27.3045 H   0  0  0  0  0  0
  -31.0182   -6.2073  -25.8625 H   0  0  0  0  0  0
  -29.9876   -7.7994  -24.3148 H   0  0  0  0  0  0
  -27.5486   -7.9522  -24.1379 H   0  0  0  0  0  0
  -24.2371   -5.2431  -28.9080 H   0  0  0  0  0  0
  -24.1078   -2.3923  -27.9801 H   0  0  0  0  0  0
  -26.0370   -3.5008  -29.6796 H   0  0  0  0  0  0
  -21.8824   -3.4543  -28.6897 H   0  0  0  0  0  0
  -22.3554   -1.9820  -29.4695 H   0  0  0  0  0  0
  -22.4843   -2.0028  -32.2550 H   0  0  0  0  0  0
  -21.9678   -3.9006  -33.9048 H   0  0  0  0  0  0
  -21.7534   -6.1258  -32.6858 H   0  0  0  0  0  0
  -19.8086   -6.0856  -24.2264 H   0  0  0  0  0  0
  -22.7549   -5.3497  -23.9328 H   0  0  0  0  0  0
  -21.9540   -6.6324  -23.0276 H   0  0  0  0  0  0
  -21.4367   -4.9547  -22.8607 H   0  0  0  0  0  0
  -20.2841   -3.7425  -24.7937 H   0  0  0  0  0  0
  -19.9311   -4.5945  -26.2930 H   0  0  0  0  0  0
  -21.5807   -4.1882  -25.8674 H   0  0  0  0  0  0
  1  2  1  0  0  0
  1 43  1  0  0  0
  1 44  1  0  0  0
  1 45  1  0  0  0
  2  3  2  0  0  0
  2  4  1  0  0  0
  4  5  1  0  0  0
  4 46  1  0  0  0
  5  6  1  0  0  0
  5  8  1  0  0  0
  5 47  1  0  0  0
  6  7  1  0  0  0
  6 48  1  0  0  0
  6 49  1  0  0  0
  7 50  1  0  0  0
  8  9  2  0  0  0
  8 10  1  0  0  0
 10 11  1  0  0  0
 10 51  1  0  0  0
 11 12  1  0  0  0
 11 13  1  0  0  0
 11 52  1  0  0  0
 12 53  1  0  0  0
 12 54  1  0  0  0
 12 55  1  0  0  0
 13 14  2  0  0  0
 13 15  1  0  0  0
 15 16  1  0  0  0
 15 56  1  0  0  0
 16 17  1  0  0  0
 16 40  1  0  0  0
 16 57  1  0  0  0
 17 18  2  0  0  0
 17 19  1  0  0  0
 19 20  1  0  0  0
 19 58  1  0  0  0
 20 21  1  0  0  0
 20 28  1  0  0  0
 20 59  1  0  0  0
 21 22  1  0  0  0
 21 60  1  0  0  0
 21 61  1  0  0  0
 22 27  1  0  0  0
 22 23  2  0  0  0
 23 24  1  0  0  0
 23 62  1  0  0  0
 24 25  2  0  0  0
 24 63  1  0  0  0
 25 26  1  0  0  0
 25 64  1  0  0  0
 26 27  2  0  0  0
 26 65  1  0  0  0
 27 66  1  0  0  0
 28 29  2  0  0  0
 28 30  1  0  0  0
 30 31  1  0  0  0
 30 67  1  0  0  0
 31 32  1  0  0  0
 31 34  1  0  0  0
 31 68  1  0  0  0
 32 33  2  0  0  0
 32 69  1  0  0  0
 34 35  1  0  0  0
 34 70  1  0  0  0
 34 71  1  0  0  0
 35 39  1  0  0  0
 35 36  2  0  0  0
 36 37  1  0  0  0
 36 72  1  0  0  0
 37 38  1  0  0  0
 37 73  1  0  0  0
 38 39  2  0  0  0
 38 74  1  0  0  0
 40 41  1  0  0  0
 40 42  1  0  0  0
 40 75  1  0  0  0
 41 76  1  0  0  0
 41 77  1  0  0  0
 41 78  1  0  0  0
 42 79  1  0  0  0
 42 80  1  0  0  0
 42 81  1  0  0  0
M  END
$$$$
