
                    3D
 Schrodinger Suite 2019-4.
 70 73  0  0  1  0            999 V2000
  -24.9665   -1.9614  -31.5931 C   0  0  0  0  0  0
  -24.6015   -2.4556  -30.1977 C   0  0  0  0  0  0
  -23.3266   -3.2966  -30.2018 C   0  0  0  0  0  0
  -23.0177   -3.8684  -28.8133 C   0  0  0  0  0  0
  -21.5641   -4.3500  -28.6884 C   0  0  2  0  0  0
  -21.3122   -5.4404  -29.6301 N   0  0  0  0  0  0
  -20.0405   -5.9152  -29.8963 C   0  0  0  0  0  0
  -18.9886   -5.3849  -29.5486 O   0  0  0  0  0  0
  -20.1331   -7.1174  -30.4778 O   0  0  0  0  0  0
  -18.9702   -7.9332  -30.5916 C   0  0  0  0  0  0
  -18.5356   -8.6227  -29.3003 C   0  0  0  0  0  0
  -17.3160   -9.3304  -29.2797 C   0  0  0  0  0  0
  -16.9350  -10.0605  -28.1366 C   0  0  0  0  0  0
  -17.7780  -10.1025  -27.0107 C   0  0  0  0  0  0
  -18.9810   -9.3751  -27.0117 C   0  0  0  0  0  0
  -19.3458   -8.6207  -28.1424 C   0  0  0  0  0  0
  -21.3211   -4.8597  -27.2606 C   0  0  0  0  0  0
  -21.6174   -6.0212  -26.9692 O   0  0  0  0  0  0
  -20.7700   -4.0008  -26.3860 N   0  0  0  0  0  0
  -20.3077   -4.3839  -25.0485 C   0  0  1  0  0  0
  -18.7837   -4.1534  -24.9545 C   0  0  0  0  0  0
  -17.9981   -5.3026  -25.6069 C   0  0  2  0  0  0
  -18.2628   -6.6656  -24.9513 C   0  0  0  0  0  0
  -16.9117   -7.3804  -24.9104 C   0  0  0  0  0  0
  -15.9545   -6.3101  -25.0326 N   0  0  0  0  0  0
  -16.4945   -5.1703  -25.4453 C   0  0  0  0  0  0
  -15.8715   -4.1477  -25.6968 O   0  0  0  0  0  0
  -21.0860   -3.6774  -23.9328 C   0  0  0  0  0  0
  -20.5531   -2.9485  -23.1022 O   0  0  0  0  0  0
  -22.5327   -3.9768  -23.8183 C   0  0  0  0  0  0
  -23.1462   -4.9602  -24.4795 N   0  0  0  0  0  0
  -24.4558   -5.0767  -24.0557 C   0  0  0  0  0  0
  -25.3881   -6.0425  -24.4904 C   0  0  0  0  0  0
  -26.6916   -6.0723  -23.9681 C   0  0  0  0  0  0
  -27.0748   -5.1398  -22.9912 C   0  0  0  0  0  0
  -26.1665   -4.1633  -22.5388 C   0  0  0  0  0  0
  -24.8686   -4.1327  -23.0719 C   0  0  0  0  0  0
  -23.5326   -3.0533  -22.6894 S   0  0  0  0  0  0
  -25.8384   -1.3078  -31.5650 H   0  0  0  0  0  0
  -24.1361   -1.3945  -32.0111 H   0  0  0  0  0  0
  -25.1813   -2.7932  -32.2633 H   0  0  0  0  0  0
  -25.4238   -3.0206  -29.7660 H   0  0  0  0  0  0
  -24.4468   -1.5961  -29.5513 H   0  0  0  0  0  0
  -22.4964   -2.6725  -30.5363 H   0  0  0  0  0  0
  -23.4157   -4.1101  -30.9229 H   0  0  0  0  0  0
  -23.7229   -4.6681  -28.5780 H   0  0  0  0  0  0
  -23.1855   -3.0883  -28.0683 H   0  0  0  0  0  0
  -20.8854   -3.5248  -28.9034 H   0  0  0  0  0  0
  -22.0835   -6.0098  -29.9459 H   0  0  0  0  0  0
  -18.1395   -7.3591  -30.9952 H   0  0  0  0  0  0
  -19.1841   -8.7100  -31.3250 H   0  0  0  0  0  0
  -16.6726   -9.3260  -30.1478 H   0  0  0  0  0  0
  -15.9962  -10.5950  -28.1282 H   0  0  0  0  0  0
  -17.4891  -10.6723  -26.1397 H   0  0  0  0  0  0
  -19.6243   -9.3968  -26.1442 H   0  0  0  0  0  0
  -20.2757   -8.0780  -28.1260 H   0  0  0  0  0  0
  -20.5754   -3.0587  -26.6959 H   0  0  0  0  0  0
  -20.4975   -5.4426  -24.8774 H   0  0  0  0  0  0
  -18.4645   -4.0831  -23.9140 H   0  0  0  0  0  0
  -18.5203   -3.1997  -25.4141 H   0  0  0  0  0  0
  -18.2101   -5.3550  -26.6758 H   0  0  0  0  0  0
  -19.0252   -7.2303  -25.4813 H   0  0  0  0  0  0
  -18.6236   -6.5322  -23.9333 H   0  0  0  0  0  0
  -16.7732   -8.0326  -25.7689 H   0  0  0  0  0  0
  -16.7697   -7.9628  -24.0003 H   0  0  0  0  0  0
  -14.9596   -6.4550  -24.9136 H   0  0  0  0  0  0
  -25.0927   -6.7697  -25.2317 H   0  0  0  0  0  0
  -27.3971   -6.8131  -24.3144 H   0  0  0  0  0  0
  -28.0766   -5.1875  -22.6044 H   0  0  0  0  0  0
  -26.4617   -3.4423  -21.7913 H   0  0  0  0  0  0
  1  2  1  0  0  0
  1 39  1  0  0  0
  1 40  1  0  0  0
  1 41  1  0  0  0
  2  3  1  0  0  0
  2 42  1  0  0  0
  2 43  1  0  0  0
  3  4  1  0  0  0
  3 44  1  0  0  0
  3 45  1  0  0  0
  4  5  1  0  0  0
  4 46  1  0  0  0
  4 47  1  0  0  0
  5  6  1  0  0  0
  5 17  1  0  0  0
  5 48  1  0  0  0
  6  7  1  0  0  0
  6 49  1  0  0  0
  7  8  2  0  0  0
  7  9  1  0  0  0
  9 10  1  0  0  0
 10 11  1  0  0  0
 10 50  1  0  0  0
 10 51  1  0  0  0
 11 16  1  0  0  0
 11 12  2  0  0  0
 12 13  1  0  0  0
 12 52  1  0  0  0
 13 14  2  0  0  0
 13 53  1  0  0  0
 14 15  1  0  0  0
 14 54  1  0  0  0
 15 16  2  0  0  0
 15 55  1  0  0  0
 16 56  1  0  0  0
 17 18  2  0  0  0
 17 19  1  0  0  0
 19 20  1  0  0  0
 19 57  1  0  0  0
 20 21  1  0  0  0
 20 28  1  0  0  0
 20 58  1  0  0  0
 21 22  1  0  0  0
 21 59  1  0  0  0
 21 60  1  0  0  0
 22 26  1  0  0  0
 22 23  1  0  0  0
 22 61  1  0  0  0
 23 24  1  0  0  0
 23 62  1  0  0  0
 23 63  1  0  0  0
 24 25  1  0  0  0
 24 64  1  0  0  0
 24 65  1  0  0  0
 25 26  1  0  0  0
 25 66  1  0  0  0
 26 27  2  0  0  0
 28 29  2  0  0  0
 28 30  1  0  0  0
 30 38  1  0  0  0
 30 31  2  0  0  0
 31 32  1  0  0  0
 32 37  2  0  0  0
 32 33  1  0  0  0
 33 34  2  0  0  0
 33 67  1  0  0  0
 34 35  1  0  0  0
 34 68  1  0  0  0
 35 36  2  0  0  0
 35 69  1  0  0  0
 36 37  1  0  0  0
 36 70  1  0  0  0
 37 38  1  0  0  0
M  END
$$$$
