
                    3D
 Schrodinger Suite 2019-4.
 63 65  0  0  1  0            999 V2000
  -18.3764   -9.4090  -29.3441 C   0  0  0  0  0  0
  -19.5934   -9.2850  -28.4039 C   0  0  0  0  0  0
  -20.8770   -9.6134  -29.2013 C   0  0  0  0  0  0
  -19.4129  -10.2842  -27.2379 C   0  0  0  0  0  0
  -19.6152   -7.9027  -27.9197 N   0  0  0  0  0  0
  -20.4695   -7.3387  -27.0420 C   0  0  0  0  0  0
  -21.4187   -7.9244  -26.5311 O   0  0  0  0  0  0
  -20.1454   -5.8670  -26.6648 C   0  0  2  0  0  0
  -18.7880   -5.6788  -25.9871 C   0  0  0  0  0  0
  -18.0072   -6.7508  -25.5054 C   0  0  0  0  0  0
  -16.7065   -6.5356  -25.0597 C   0  0  0  0  0  0
  -16.2199   -5.2328  -25.0623 C   0  0  0  0  0  0
  -16.9617   -4.1760  -25.4691 N   0  0  0  0  0  0
  -18.2169   -4.4051  -25.9267 C   0  0  0  0  0  0
  -21.3128   -5.0244  -26.2054 N   0  0  0  0  0  0
  -21.5154   -4.6076  -24.9025 C   0  0  0  0  0  0
  -20.6195   -4.6023  -24.0554 O   0  0  0  0  0  0
  -22.8146   -4.0783  -24.4826 C   0  0  0  0  0  0
  -24.1044   -4.4682  -24.8649 C   0  0  0  0  0  0
  -25.1207   -3.8233  -24.1532 C   0  0  0  0  0  0
  -24.6355   -2.9737  -23.1766 C   0  0  0  0  0  0
  -22.9083   -2.9804  -23.1192 S   0  0  0  0  0  0
  -22.2137   -4.6542  -27.2365 C   0  0  0  0  0  0
  -22.1492   -3.3498  -27.7175 C   0  0  0  0  0  0
  -22.9059   -2.9713  -28.8203 C   0  0  0  0  0  0
  -23.7432   -3.8914  -29.4644 C   0  0  0  0  0  0
  -24.5134   -3.4537  -30.7375 C   0  0  0  0  0  0
  -23.5078   -3.0168  -31.8294 C   0  0  0  0  0  0
  -25.4497   -2.2736  -30.4033 C   0  0  0  0  0  0
  -25.3981   -4.5772  -31.3357 C   0  0  0  0  0  0
  -23.8346   -5.1909  -28.9443 C   0  0  0  0  0  0
  -23.0822   -5.5707  -27.8399 C   0  0  0  0  0  0
  -17.4437   -9.1817  -28.8256 H   0  0  0  0  0  0
  -18.2839  -10.4165  -29.7498 H   0  0  0  0  0  0
  -18.4499   -8.7234  -30.1913 H   0  0  0  0  0  0
  -21.7696   -9.5558  -28.5786 H   0  0  0  0  0  0
  -21.0181   -8.9178  -30.0302 H   0  0  0  0  0  0
  -20.8415  -10.6201  -29.6203 H   0  0  0  0  0  0
  -20.2601  -10.2742  -26.5525 H   0  0  0  0  0  0
  -19.3056  -11.3079  -27.6000 H   0  0  0  0  0  0
  -18.5252  -10.0512  -26.6492 H   0  0  0  0  0  0
  -18.8603   -7.3285  -28.2602 H   0  0  0  0  0  0
  -19.9824   -5.4696  -27.6720 H   0  0  0  0  0  0
  -18.3754   -7.7669  -25.4960 H   0  0  0  0  0  0
  -16.0884   -7.3554  -24.7229 H   0  0  0  0  0  0
  -15.2158   -5.0267  -24.7217 H   0  0  0  0  0  0
  -18.7596   -3.5408  -26.2787 H   0  0  0  0  0  0
  -24.3228   -5.2094  -25.6175 H   0  0  0  0  0  0
  -26.1752   -3.9914  -24.3253 H   0  0  0  0  0  0
  -25.2019   -2.3703  -22.4781 H   0  0  0  0  0  0
  -21.4838   -2.6280  -27.2652 H   0  0  0  0  0  0
  -22.8144   -1.9568  -29.1831 H   0  0  0  0  0  0
  -24.0268   -2.6612  -32.7179 H   0  0  0  0  0  0
  -22.8615   -2.2025  -31.4991 H   0  0  0  0  0  0
  -22.8646   -3.8436  -32.1339 H   0  0  0  0  0  0
  -26.0092   -1.9411  -31.2784 H   0  0  0  0  0  0
  -26.1776   -2.5762  -29.6459 H   0  0  0  0  0  0
  -24.9059   -1.4066  -30.0265 H   0  0  0  0  0  0
  -25.8509   -4.2770  -32.2827 H   0  0  0  0  0  0
  -24.8248   -5.4834  -31.5238 H   0  0  0  0  0  0
  -26.2134   -4.8464  -30.6658 H   0  0  0  0  0  0
  -24.4760   -5.9389  -29.3852 H   0  0  0  0  0  0
  -23.1817   -6.5792  -27.4766 H   0  0  0  0  0  0
  1  2  1  0  0  0
  1 33  1  0  0  0
  1 34  1  0  0  0
  1 35  1  0  0  0
  2  3  1  0  0  0
  2  4  1  0  0  0
  2  5  1  0  0  0
  3 36  1  0  0  0
  3 37  1  0  0  0
  3 38  1  0  0  0
  4 39  1  0  0  0
  4 40  1  0  0  0
  4 41  1  0  0  0
  5  6  1  0  0  0
  5 42  1  0  0  0
  6  7  2  0  0  0
  6  8  1  0  0  0
  8  9  1  0  0  0
  8 15  1  0  0  0
  8 43  1  0  0  0
  9 14  1  0  0  0
  9 10  2  0  0  0
 10 11  1  0  0  0
 10 44  1  0  0  0
 11 12  2  0  0  0
 11 45  1  0  0  0
 12 13  1  0  0  0
 12 46  1  0  0  0
 13 14  2  0  0  0
 14 47  1  0  0  0
 15 16  1  0  0  0
 15 23  1  0  0  0
 16 17  2  0  0  0
 16 18  1  0  0  0
 18 22  1  0  0  0
 18 19  2  0  0  0
 19 20  1  0  0  0
 19 48  1  0  0  0
 20 21  2  0  0  0
 20 49  1  0  0  0
 21 22  1  0  0  0
 21 50  1  0  0  0
 23 32  1  0  0  0
 23 24  2  0  0  0
 24 25  1  0  0  0
 24 51  1  0  0  0
 25 26  2  0  0  0
 25 52  1  0  0  0
 26 27  1  0  0  0
 26 31  1  0  0  0
 27 28  1  0  0  0
 27 29  1  0  0  0
 27 30  1  0  0  0
 28 53  1  0  0  0
 28 54  1  0  0  0
 28 55  1  0  0  0
 29 56  1  0  0  0
 29 57  1  0  0  0
 29 58  1  0  0  0
 30 59  1  0  0  0
 30 60  1  0  0  0
 30 61  1  0  0  0
 31 32  2  0  0  0
 31 62  1  0  0  0
 32 63  1  0  0  0
M  END
$$$$
