
                    3D
 Schrodinger Suite 2019-4.
 75 78  0  0  1  0            999 V2000
  -28.4228   -6.5836  -25.3904 C   0  0  0  0  0  0
  -27.1302   -6.0846  -25.0591 O   0  0  0  0  0  0
  -26.6180   -4.9958  -25.7417 C   0  0  0  0  0  0
  -27.3157   -4.3654  -26.7837 C   0  0  0  0  0  0
  -26.7555   -3.2896  -27.4599 C   0  0  0  0  0  0
  -25.4803   -2.8566  -27.1384 C   0  0  0  0  0  0
  -24.7941   -3.4323  -26.0788 C   0  0  0  0  0  0
  -25.3535   -4.4953  -25.3606 C   0  0  0  0  0  0
  -24.6799   -5.0707  -24.2627 N   0  0  0  0  0  0
  -23.7878   -4.3390  -23.3750 C   0  0  0  0  0  0
  -22.3264   -4.1386  -23.8494 C   0  0  0  0  0  0
  -21.5475   -3.4856  -23.1490 O   0  0  0  0  0  0
  -21.9807   -4.6977  -25.0191 N   0  0  0  0  0  0
  -20.7291   -4.6343  -25.7746 C   0  0  1  0  0  0
  -19.5473   -5.1737  -24.9165 C   0  0  0  0  0  0
  -18.2107   -5.4849  -25.6437 C   0  0  0  0  0  0
  -18.1102   -6.9694  -26.0376 C   0  0  0  0  0  0
  -16.9619   -5.0647  -24.8380 C   0  0  0  0  0  0
  -21.0017   -5.4269  -27.0684 C   0  0  0  0  0  0
  -21.6848   -6.4486  -26.9914 O   0  0  0  0  0  0
  -20.5037   -4.9578  -28.2292 N   0  0  0  0  0  0
  -20.6271   -5.6484  -29.5442 C   0  0  1  0  0  0
  -21.0564   -4.7240  -30.7274 C   0  0  0  0  0  0
  -21.7920   -3.4022  -30.3776 C   0  0  2  0  0  0
  -23.0528   -3.5534  -29.5330 C   0  0  0  0  0  0
  -24.2033   -3.1128  -30.4131 C   0  0  0  0  0  0
  -23.5653   -2.5641  -31.5981 N   0  0  0  0  0  0
  -22.2379   -2.7151  -31.6780 C   0  0  0  0  0  0
  -21.5117   -2.3614  -32.6029 O   0  0  0  0  0  0
  -19.3030   -6.3716  -29.8474 C   0  0  0  0  0  0
  -18.3286   -6.2284  -29.1056 O   0  0  0  0  0  0
  -19.1874   -7.2332  -31.0364 C   0  0  0  0  0  0
  -20.1271   -7.4823  -31.9137 N   0  0  0  0  0  0
  -19.6985   -8.3213  -32.8966 C   0  0  0  0  0  0
  -20.4777   -8.7511  -33.9815 C   0  0  0  0  0  0
  -19.9020   -9.6149  -34.9164 C   0  0  0  0  0  0
  -18.5830  -10.0474  -34.7828 C   0  0  0  0  0  0
  -17.7838   -9.6291  -33.7184 C   0  0  0  0  0  0
  -18.3557   -8.7627  -32.7749 C   0  0  0  0  0  0
  -17.6535   -8.0517  -31.3373 S   0  0  0  0  0  0
  -28.6743   -7.4068  -24.7184 H   0  0  0  0  0  0
  -29.1925   -5.8175  -25.2806 H   0  0  0  0  0  0
  -28.4448   -6.9746  -26.4102 H   0  0  0  0  0  0
  -28.2933   -4.6967  -27.0964 H   0  0  0  0  0  0
  -27.3054   -2.8150  -28.2563 H   0  0  0  0  0  0
  -25.0286   -2.0551  -27.6968 H   0  0  0  0  0  0
  -23.8283   -3.0249  -25.8319 H   0  0  0  0  0  0
  -25.3505   -5.6499  -23.7675 H   0  0  0  0  0  0
  -23.6609   -4.9202  -22.4608 H   0  0  0  0  0  0
  -24.2000   -3.3928  -23.0232 H   0  0  0  0  0  0
  -22.6943   -5.2547  -25.4784 H   0  0  0  0  0  0
  -20.5375   -3.5959  -26.0448 H   0  0  0  0  0  0
  -19.8619   -6.0672  -24.3756 H   0  0  0  0  0  0
  -19.3638   -4.4314  -24.1392 H   0  0  0  0  0  0
  -18.1867   -4.8970  -26.5632 H   0  0  0  0  0  0
  -17.3126   -7.1250  -26.7656 H   0  0  0  0  0  0
  -17.8868   -7.5969  -25.1729 H   0  0  0  0  0  0
  -19.0343   -7.3390  -26.4776 H   0  0  0  0  0  0
  -16.3012   -4.4560  -25.4559 H   0  0  0  0  0  0
  -17.1952   -4.4823  -23.9476 H   0  0  0  0  0  0
  -16.3753   -5.9237  -24.5090 H   0  0  0  0  0  0
  -20.0009   -4.0791  -28.2269 H   0  0  0  0  0  0
  -21.3920   -6.4249  -29.4622 H   0  0  0  0  0  0
  -21.6849   -5.3144  -31.3968 H   0  0  0  0  0  0
  -20.1872   -4.4512  -31.3334 H   0  0  0  0  0  0
  -21.1143   -2.7291  -29.8607 H   0  0  0  0  0  0
  -22.9806   -2.9067  -28.6586 H   0  0  0  0  0  0
  -23.2071   -4.5670  -29.1689 H   0  0  0  0  0  0
  -24.7926   -2.3421  -29.9201 H   0  0  0  0  0  0
  -24.8562   -3.9507  -30.6532 H   0  0  0  0  0  0
  -24.0928   -2.1219  -32.3351 H   0  0  0  0  0  0
  -21.4997   -8.4270  -34.0986 H   0  0  0  0  0  0
  -20.4846   -9.9525  -35.7623 H   0  0  0  0  0  0
  -18.1715  -10.7150  -35.5262 H   0  0  0  0  0  0
  -16.7594   -9.9613  -33.6239 H   0  0  0  0  0  0
  1  2  1  0  0  0
  1 41  1  0  0  0
  1 42  1  0  0  0
  1 43  1  0  0  0
  2  3  1  0  0  0
  3  8  1  0  0  0
  3  4  2  0  0  0
  4  5  1  0  0  0
  4 44  1  0  0  0
  5  6  2  0  0  0
  5 45  1  0  0  0
  6  7  1  0  0  0
  6 46  1  0  0  0
  7  8  2  0  0  0
  7 47  1  0  0  0
  8  9  1  0  0  0
  9 10  1  0  0  0
  9 48  1  0  0  0
 10 11  1  0  0  0
 10 49  1  0  0  0
 10 50  1  0  0  0
 11 12  2  0  0  0
 11 13  1  0  0  0
 13 14  1  0  0  0
 13 51  1  0  0  0
 14 15  1  0  0  0
 14 19  1  0  0  0
 14 52  1  0  0  0
 15 16  1  0  0  0
 15 53  1  0  0  0
 15 54  1  0  0  0
 16 17  1  0  0  0
 16 18  1  0  0  0
 16 55  1  0  0  0
 17 56  1  0  0  0
 17 57  1  0  0  0
 17 58  1  0  0  0
 18 59  1  0  0  0
 18 60  1  0  0  0
 18 61  1  0  0  0
 19 20  2  0  0  0
 19 21  1  0  0  0
 21 22  1  0  0  0
 21 62  1  0  0  0
 22 23  1  0  0  0
 22 30  1  0  0  0
 22 63  1  0  0  0
 23 24  1  0  0  0
 23 64  1  0  0  0
 23 65  1  0  0  0
 24 28  1  0  0  0
 24 25  1  0  0  0
 24 66  1  0  0  0
 25 26  1  0  0  0
 25 67  1  0  0  0
 25 68  1  0  0  0
 26 27  1  0  0  0
 26 69  1  0  0  0
 26 70  1  0  0  0
 27 28  1  0  0  0
 27 71  1  0  0  0
 28 29  2  0  0  0
 30 31  2  0  0  0
 30 32  1  0  0  0
 32 40  1  0  0  0
 32 33  2  0  0  0
 33 34  1  0  0  0
 34 39  2  0  0  0
 34 35  1  0  0  0
 35 36  2  0  0  0
 35 72  1  0  0  0
 36 37  1  0  0  0
 36 73  1  0  0  0
 37 38  2  0  0  0
 37 74  1  0  0  0
 38 39  1  0  0  0
 38 75  1  0  0  0
 39 40  1  0  0  0
M  END
$$$$
