
                    3D
 Schrodinger Suite 2019-4.
 69 73  0  0  1  0            999 V2000
  -20.8007   -3.5359  -22.7492 O   0  5  0  0  0  0
  -21.0220   -3.8007  -23.9845 C   0  0  0  0  0  0
  -20.1425   -3.9495  -25.0025 C   0  0  0  0  0  0
  -18.6369   -3.7696  -24.8374 C   0  0  0  0  0  0
  -17.7435   -4.9929  -24.9259 C   0  0  0  0  0  0
  -16.3753   -5.0269  -25.1574 C   0  0  0  0  0  0
  -16.0196   -6.3458  -25.1490 N   0  0  0  0  0  0
  -17.1815   -7.0234  -24.8990 C   0  0  0  0  0  0
  -18.2115   -6.2244  -24.7503 N   0  0  0  0  0  0
  -22.0211   -4.4038  -26.7113 C   0  0  0  0  0  0
  -22.3203   -5.2216  -27.9851 C   0  0  2  0  0  0
  -21.8117   -4.6412  -29.3309 C   0  0  0  0  0  0
  -22.6470   -3.4840  -29.9073 C   0  0  1  0  0  0
  -22.2633   -3.1571  -31.3705 C   0  0  0  0  0  0
  -23.0452   -1.9429  -31.9068 C   0  0  0  0  0  0
  -24.5705   -2.1234  -31.7367 C   0  0  0  0  0  0
  -24.9340   -2.5945  -30.3204 C   0  0  0  0  0  0
  -24.1422   -3.8528  -29.9110 C   0  0  2  0  0  0
  -24.6334   -4.3500  -28.5453 C   0  0  0  0  0  0
  -23.7803   -5.4708  -28.0868 N   0  0  0  0  0  0
  -24.2901   -6.5988  -27.5015 C   0  0  0  0  0  0
  -23.5633   -7.5339  -27.1465 O   0  0  0  0  0  0
  -25.7830   -6.7164  -27.2291 C   0  0  0  0  0  0
  -26.4579   -5.6567  -26.5945 C   0  0  0  0  0  0
  -27.8071   -5.7432  -26.2679 C   0  0  0  0  0  0
  -28.5082   -6.9077  -26.5420 C   0  0  0  0  0  0
  -27.8515   -7.9767  -27.1455 C   0  0  0  0  0  0
  -26.4985   -7.9096  -27.5006 C   0  0  0  0  0  0
  -25.8940   -9.1137  -28.1433 C   0  0  0  0  0  0
  -25.9316  -10.3486  -27.4838 C   0  0  0  0  0  0
  -25.3598  -11.4769  -28.0630 C   0  0  0  0  0  0
  -24.7487  -11.3768  -29.3085 C   0  0  0  0  0  0
  -24.7071  -10.1574  -29.9790 C   0  0  0  0  0  0
  -25.2897   -9.0315  -29.4024 C   0  0  0  0  0  0
  -20.5187   -4.3432  -26.3813 N   0  3  0  0  0  0
  -22.0610   -3.9142  -24.2377 H   0  0  0  0  0  0
  -18.4398   -3.2685  -23.8893 H   0  0  0  0  0  0
  -18.3294   -3.0391  -25.5851 H   0  0  0  0  0  0
  -15.6480   -4.2484  -25.3391 H   0  0  0  0  0  0
  -15.0935   -6.7357  -25.3331 H   0  0  0  0  0  0
  -17.1815   -8.1016  -24.8466 H   0  0  0  0  0  0
  -22.4811   -4.9468  -25.8882 H   0  0  0  0  0  0
  -22.3738   -3.3726  -26.7372 H   0  0  0  0  0  0
  -21.7994   -6.1748  -27.8773 H   0  0  0  0  0  0
  -21.8829   -5.4681  -30.0418 H   0  0  0  0  0  0
  -20.7465   -4.4121  -29.3213 H   0  0  0  0  0  0
  -22.5017   -2.6112  -29.2658 H   0  0  0  0  0  0
  -22.4247   -4.0290  -32.0059 H   0  0  0  0  0  0
  -21.1997   -2.9728  -31.4509 H   0  0  0  0  0  0
  -22.7993   -1.8025  -32.9599 H   0  0  0  0  0  0
  -22.7188   -1.0433  -31.3821 H   0  0  0  0  0  0
  -24.9321   -2.8565  -32.4573 H   0  0  0  0  0  0
  -25.0876   -1.1876  -31.9408 H   0  0  0  0  0  0
  -25.9964   -2.8008  -30.2636 H   0  0  0  0  0  0
  -24.7745   -1.7951  -29.5929 H   0  0  0  0  0  0
  -24.3124   -4.6490  -30.6405 H   0  0  0  0  0  0
  -25.6631   -4.6599  -28.7222 H   0  0  0  0  0  0
  -24.5936   -3.5384  -27.8165 H   0  0  0  0  0  0
  -25.9379   -4.7403  -26.3475 H   0  0  0  0  0  0
  -28.3058   -4.9138  -25.7890 H   0  0  0  0  0  0
  -29.5539   -6.9898  -26.2867 H   0  0  0  0  0  0
  -28.4000   -8.8840  -27.3463 H   0  0  0  0  0  0
  -26.3958  -10.4295  -26.5112 H   0  0  0  0  0  0
  -25.3931  -12.4267  -27.5472 H   0  0  0  0  0  0
  -24.3050  -12.2510  -29.7609 H   0  0  0  0  0  0
  -24.2364  -10.0839  -30.9458 H   0  0  0  0  0  0
  -25.2591   -8.0905  -29.9301 H   0  0  0  0  0  0
  -20.1189   -5.2529  -26.5690 H   0  0  0  0  0  0
  -20.0943   -3.6967  -27.0308 H   0  0  0  0  0  0
  1  2  1  0  0  0
  2  3  2  0  0  0
  2 36  1  0  0  0
  3  4  1  0  0  0
  3 35  1  0  0  0
  4  5  1  0  0  0
  4 37  1  0  0  0
  4 38  1  0  0  0
  5  9  1  0  0  0
  5  6  2  0  0  0
  6  7  1  0  0  0
  6 39  1  0  0  0
  7  8  1  0  0  0
  7 40  1  0  0  0
  8  9  2  0  0  0
  8 41  1  0  0  0
 10 11  1  0  0  0
 10 35  1  0  0  0
 10 42  1  0  0  0
 10 43  1  0  0  0
 11 20  1  0  0  0
 11 12  1  0  0  0
 11 44  1  0  0  0
 12 13  1  0  0  0
 12 45  1  0  0  0
 12 46  1  0  0  0
 13 18  1  0  0  0
 13 14  1  0  0  0
 13 47  1  0  0  0
 14 15  1  0  0  0
 14 48  1  0  0  0
 14 49  1  0  0  0
 15 16  1  0  0  0
 15 50  1  0  0  0
 15 51  1  0  0  0
 16 17  1  0  0  0
 16 52  1  0  0  0
 16 53  1  0  0  0
 17 18  1  0  0  0
 17 54  1  0  0  0
 17 55  1  0  0  0
 18 19  1  0  0  0
 18 56  1  0  0  0
 19 20  1  0  0  0
 19 57  1  0  0  0
 19 58  1  0  0  0
 20 21  1  0  0  0
 21 22  2  0  0  0
 21 23  1  0  0  0
 23 28  1  0  0  0
 23 24  2  0  0  0
 24 25  1  0  0  0
 24 59  1  0  0  0
 25 26  2  0  0  0
 25 60  1  0  0  0
 26 27  1  0  0  0
 26 61  1  0  0  0
 27 28  2  0  0  0
 27 62  1  0  0  0
 28 29  1  0  0  0
 29 34  1  0  0  0
 29 30  2  0  0  0
 30 31  1  0  0  0
 30 63  1  0  0  0
 31 32  2  0  0  0
 31 64  1  0  0  0
 32 33  1  0  0  0
 32 65  1  0  0  0
 33 34  2  0  0  0
 33 66  1  0  0  0
 34 67  1  0  0  0
 35 68  1  0  0  0
 35 69  1  0  0  0
M  CHG  2   1  -1  35   1
M  END
$$$$
