
                    3D
 Schrodinger Suite 2019-4.
104104  0  0  1  0            999 V2000
  -16.5136  -14.1392  -34.3480 C   0  0  0  0  0  0
  -16.6723  -12.6175  -34.1340 C   0  0  0  0  0  0
  -15.3461  -11.8724  -34.3623 C   0  0  0  0  0  0
  -17.2673  -12.3041  -32.7424 C   0  0  0  0  0  0
  -17.5825  -10.8086  -32.4707 C   0  0  2  0  0  0
  -18.0106  -10.6905  -31.0744 N   0  0  0  0  0  0
  -18.0369   -9.5565  -30.3560 C   0  0  0  0  0  0
  -17.7229   -8.4513  -30.8031 O   0  0  0  0  0  0
  -18.4366   -9.6986  -28.8702 C   0  0  1  0  0  0
  -17.8080   -8.6222  -28.1125 N   0  0  0  0  0  0
  -17.7199   -8.5544  -26.7766 C   0  0  0  0  0  0
  -18.1611   -9.4126  -26.0083 O   0  0  0  0  0  0
  -17.0323   -7.3062  -26.2081 C   0  0  2  0  0  0
  -16.0182   -7.6696  -25.1145 C   0  0  0  0  0  0
  -18.0239   -6.3893  -25.6559 N   0  0  0  0  0  0
  -18.8184   -5.5898  -26.3913 C   0  0  0  0  0  0
  -18.7196   -5.4518  -27.6130 O   0  0  0  0  0  0
  -19.9163   -4.8447  -25.6024 C   0  0  2  0  0  0
  -21.2275   -5.6494  -25.4889 C   0  0  0  0  0  0
  -21.7934   -5.9431  -26.7529 O   0  0  0  0  0  0
  -20.2514   -3.5449  -26.1774 N   0  0  0  0  0  0
  -19.4528   -2.4691  -26.1966 C   0  0  0  0  0  0
  -18.3244   -2.4802  -25.7093 O   0  0  0  0  0  0
  -19.9578   -1.1636  -26.8885 C   0  0  1  0  0  0
  -21.1205   -1.2239  -27.7744 N   0  0  0  0  0  0
  -21.3628   -2.1506  -28.7598 C   0  0  0  0  0  0
  -20.7642   -3.2130  -28.9607 O   0  0  0  0  0  0
  -22.3172   -1.6301  -29.5418 O   0  0  0  0  0  0
  -22.5866   -2.1342  -30.8391 C   0  0  0  0  0  0
  -24.0407   -2.5514  -30.9121 C   0  0  0  0  0  0
  -24.5053   -3.5987  -30.1147 C   0  0  0  0  0  0
  -25.8571   -3.9211  -30.1337 C   0  0  0  0  0  0
  -26.7295   -3.2123  -30.9574 C   0  0  0  0  0  0
  -26.2636   -2.1937  -31.7784 C   0  0  0  0  0  0
  -24.9178   -1.8562  -31.7418 C   0  0  0  0  0  0
  -20.3014   -0.1043  -25.7884 C   0  0  1  0  0  0
  -19.1064    0.3832  -24.9854 C   0  0  0  0  0  0
  -20.8767    1.0878  -26.2950 O   0  0  0  0  0  0
  -19.9902   -9.7197  -28.6896 C   0  0  0  0  0  0
  -20.6722  -10.9375  -29.3424 C   0  0  0  0  0  0
  -20.6965   -8.4293  -29.1420 C   0  0  0  0  0  0
  -18.6297  -10.2258  -33.4432 C   0  0  0  0  0  0
  -19.5425  -10.9444  -33.8544 O   0  0  0  0  0  0
  -18.4800   -8.9327  -33.7818 N   0  0  0  0  0  0
  -19.3759   -8.2054  -34.6932 C   0  0  2  0  0  0
  -18.7892   -8.1074  -36.0415 C   0  0  0  0  0  0
  -18.3244   -8.0331  -37.0993 N   0  0  0  0  0  0
  -19.7958   -6.8308  -34.1258 C   0  0  0  0  0  0
  -20.4021   -6.9275  -32.7045 C   0  0  0  0  0  0
  -20.9873   -5.6228  -32.1536 C   0  0  0  0  0  0
  -20.9019   -5.4524  -30.8335 N   0  0  0  0  0  0
  -21.5143   -4.7921  -32.8872 O   0  0  0  0  0  0
  -16.9757  -14.7177  -33.5450 H   0  0  0  0  0  0
  -16.9852  -14.4500  -35.2803 H   0  0  0  0  0  0
  -15.4668  -14.4481  -34.3928 H   0  0  0  0  0  0
  -17.3770  -12.2782  -34.8953 H   0  0  0  0  0  0
  -15.5324  -10.8722  -34.7577 H   0  0  0  0  0  0
  -14.7799  -11.7602  -33.4359 H   0  0  0  0  0  0
  -14.7095  -12.3930  -35.0805 H   0  0  0  0  0  0
  -16.5741  -12.6640  -31.9806 H   0  0  0  0  0  0
  -18.1829  -12.8860  -32.6110 H   0  0  0  0  0  0
  -16.6588  -10.2370  -32.5777 H   0  0  0  0  0  0
  -18.2920  -11.5530  -30.6302 H   0  0  0  0  0  0
  -18.0248  -10.6399  -28.5057 H   0  0  0  0  0  0
  -17.4313   -7.8777  -28.6844 H   0  0  0  0  0  0
  -16.4840   -6.8071  -27.0104 H   0  0  0  0  0  0
  -15.5065   -6.7785  -24.7576 H   0  0  0  0  0  0
  -16.4948   -8.1527  -24.2597 H   0  0  0  0  0  0
  -15.2546   -8.3457  -25.4971 H   0  0  0  0  0  0
  -18.1360   -6.4159  -24.6538 H   0  0  0  0  0  0
  -19.5443   -4.6630  -24.5909 H   0  0  0  0  0  0
  -21.9575   -5.0953  -24.8951 H   0  0  0  0  0  0
  -21.0483   -6.5892  -24.9690 H   0  0  0  0  0  0
  -22.6565   -6.3424  -26.6218 H   0  0  0  0  0  0
  -21.1031   -3.5289  -26.7210 H   0  0  0  0  0  0
  -19.1293   -0.8009  -27.4890 H   0  0  0  0  0  0
  -21.7770   -0.4569  -27.6856 H   0  0  0  0  0  0
  -21.9463   -2.9660  -31.1209 H   0  0  0  0  0  0
  -22.3829   -1.3449  -31.5632 H   0  0  0  0  0  0
  -23.8249   -4.1430  -29.4739 H   0  0  0  0  0  0
  -26.2255   -4.7266  -29.5158 H   0  0  0  0  0  0
  -27.7754   -3.4785  -30.9740 H   0  0  0  0  0  0
  -26.9474   -1.6545  -32.4172 H   0  0  0  0  0  0
  -24.5584   -1.0415  -32.3518 H   0  0  0  0  0  0
  -21.0846   -0.5087  -25.1568 H   0  0  0  0  0  0
  -19.3501    1.2408  -24.3589 H   0  0  0  0  0  0
  -18.7177   -0.4107  -24.3578 H   0  0  0  0  0  0
  -18.3208    0.6847  -25.6634 H   0  0  0  0  0  0
  -20.2010    1.7786  -26.3582 H   0  0  0  0  0  0
  -20.1844   -9.8178  -27.6214 H   0  0  0  0  0  0
  -21.7209  -10.9971  -29.0550 H   0  0  0  0  0  0
  -20.6461  -10.8854  -30.4289 H   0  0  0  0  0  0
  -20.1977  -11.8682  -29.0344 H   0  0  0  0  0  0
  -21.7588   -8.4565  -28.8991 H   0  0  0  0  0  0
  -20.2798   -7.5493  -28.6538 H   0  0  0  0  0  0
  -20.6188   -8.2957  -30.2149 H   0  0  0  0  0  0
  -17.7438   -8.3986  -33.3334 H   0  0  0  0  0  0
  -20.2991   -8.7695  -34.8503 H   0  0  0  0  0  0
  -20.5174   -6.3788  -34.8095 H   0  0  0  0  0  0
  -18.9298   -6.1650  -34.1048 H   0  0  0  0  0  0
  -19.6273   -7.2736  -32.0208 H   0  0  0  0  0  0
  -21.2006   -7.6740  -32.6828 H   0  0  0  0  0  0
  -20.4490   -6.1403  -30.2515 H   0  0  0  0  0  0
  -21.2146   -4.5895  -30.4028 H   0  0  0  0  0  0
  1  2  1  0  0  0
  1 53  1  0  0  0
  1 54  1  0  0  0
  1 55  1  0  0  0
  2  3  1  0  0  0
  2  4  1  0  0  0
  2 56  1  0  0  0
  3 57  1  0  0  0
  3 58  1  0  0  0
  3 59  1  0  0  0
  4  5  1  0  0  0
  4 60  1  0  0  0
  4 61  1  0  0  0
  5  6  1  0  0  0
  5 42  1  0  0  0
  5 62  1  0  0  0
  6  7  1  0  0  0
  6 63  1  0  0  0
  7  8  2  0  0  0
  7  9  1  0  0  0
  9 10  1  0  0  0
  9 39  1  0  0  0
  9 64  1  0  0  0
 10 11  1  0  0  0
 10 65  1  0  0  0
 11 12  2  0  0  0
 11 13  1  0  0  0
 13 14  1  0  0  0
 13 15  1  0  0  0
 13 66  1  0  0  0
 14 67  1  0  0  0
 14 68  1  0  0  0
 14 69  1  0  0  0
 15 16  1  0  0  0
 15 70  1  0  0  0
 16 17  2  0  0  0
 16 18  1  0  0  0
 18 19  1  0  0  0
 18 21  1  0  0  0
 18 71  1  0  0  0
 19 20  1  0  0  0
 19 72  1  0  0  0
 19 73  1  0  0  0
 20 74  1  0  0  0
 21 22  1  0  0  0
 21 75  1  0  0  0
 22 23  2  0  0  0
 22 24  1  0  0  0
 24 25  1  0  0  0
 24 36  1  0  0  0
 24 76  1  0  0  0
 25 26  1  0  0  0
 25 77  1  0  0  0
 26 27  2  0  0  0
 26 28  1  0  0  0
 28 29  1  0  0  0
 29 30  1  0  0  0
 29 78  1  0  0  0
 29 79  1  0  0  0
 30 35  1  0  0  0
 30 31  2  0  0  0
 31 32  1  0  0  0
 31 80  1  0  0  0
 32 33  2  0  0  0
 32 81  1  0  0  0
 33 34  1  0  0  0
 33 82  1  0  0  0
 34 35  2  0  0  0
 34 83  1  0  0  0
 35 84  1  0  0  0
 36 37  1  0  0  0
 36 38  1  0  0  0
 36 85  1  0  0  0
 37 86  1  0  0  0
 37 87  1  0  0  0
 37 88  1  0  0  0
 38 89  1  0  0  0
 39 40  1  0  0  0
 39 41  1  0  0  0
 39 90  1  0  0  0
 40 91  1  0  0  0
 40 92  1  0  0  0
 40 93  1  0  0  0
 41 94  1  0  0  0
 41 95  1  0  0  0
 41 96  1  0  0  0
 42 43  2  0  0  0
 42 44  1  0  0  0
 44 45  1  0  0  0
 44 97  1  0  0  0
 45 46  1  0  0  0
 45 48  1  0  0  0
 45 98  1  0  0  0
 46 47  3  0  0  0
 48 49  1  0  0  0
 48 99  1  0  0  0
 48100  1  0  0  0
 49 50  1  0  0  0
 49101  1  0  0  0
 49102  1  0  0  0
 50 51  1  0  0  0
 50 52  2  0  0  0
 51103  1  0  0  0
 51104  1  0  0  0
M  END
$$$$
