
                    3D
 Schrodinger Suite 2019-4.
 73 76  0  0  1  0            999 V2000
  -19.1819   -5.4723  -29.6892 O   0  0  0  0  0  0
  -20.1314   -5.7257  -30.4339 C   0  0  0  0  0  0
  -21.3275   -5.1287  -30.3295 N   0  0  0  0  0  0
  -21.6724   -4.1143  -29.3385 C   0  0  1  0  0  0
  -23.0792   -3.5577  -29.6243 C   0  0  0  0  0  0
  -23.1742   -2.8641  -30.9667 C   0  0  0  0  0  0
  -22.5636   -1.5026  -31.1811 C   0  0  0  0  0  0
  -24.0654   -1.6654  -31.1611 C   0  0  0  0  0  0
  -21.6335   -4.6988  -27.9243 C   0  0  0  0  0  0
  -22.2871   -5.7019  -27.6373 O   0  0  0  0  0  0
  -20.8620   -4.0448  -27.0514 N   0  0  0  0  0  0
  -20.8112   -4.3133  -25.6200 C   0  0  1  0  0  0
  -19.3326   -4.1507  -25.1755 C   0  0  0  0  0  0
  -18.4406   -5.2655  -25.7782 C   0  0  2  0  0  0
  -18.8138   -6.6828  -25.3169 C   0  0  0  0  0  0
  -17.4873   -7.4346  -25.1529 C   0  0  0  0  0  0
  -16.4944   -6.3867  -25.0680 N   0  0  0  0  0  0
  -16.9665   -5.1896  -25.4031 C   0  0  0  0  0  0
  -16.3023   -4.1624  -25.4510 O   0  0  0  0  0  0
  -21.7714   -3.3153  -24.9366 C   0  0  0  0  0  0
  -22.3717   -2.4341  -25.5517 O   0  0  0  0  0  0
  -22.0714   -3.5061  -23.4566 C   0  0  0  0  0  0
  -21.1991   -3.6309  -22.6004 O   0  0  0  0  0  0
  -23.3939   -3.5461  -23.2506 N   0  0  0  0  0  0
  -24.0367   -4.0328  -22.0456 C   0  0  0  0  0  0
  -24.0412   -5.5535  -21.9352 C   0  0  0  0  0  0
  -24.3701   -6.1446  -20.6989 C   0  0  0  0  0  0
  -24.4180   -7.5457  -20.5699 C   0  0  0  0  0  0
  -24.1339   -8.3677  -21.6772 C   0  0  0  0  0  0
  -23.7920   -7.7881  -22.9122 C   0  0  0  0  0  0
  -23.7523   -6.3883  -23.0433 C   0  0  0  0  0  0
  -20.1214   -6.6821  -31.5203 C   0  0  0  0  0  0
  -19.0975   -7.5447  -31.6488 C   0  0  0  0  0  0
  -18.9454   -8.5513  -32.7052 C   0  0  0  0  0  0
  -19.9910   -8.8696  -33.6026 C   0  0  0  0  0  0
  -19.7914   -9.8218  -34.6190 C   0  0  0  0  0  0
  -18.5435  -10.4598  -34.7514 C   0  0  0  0  0  0
  -17.4944  -10.1417  -33.8687 C   0  0  0  0  0  0
  -17.6953   -9.1893  -32.8520 C   0  0  0  0  0  0
  -22.0569   -5.4054  -30.9701 H   0  0  0  0  0  0
  -20.9528   -3.3009  -29.4129 H   0  0  0  0  0  0
  -23.3519   -2.8427  -28.8452 H   0  0  0  0  0  0
  -23.8287   -4.3501  -29.5908 H   0  0  0  0  0  0
  -23.1079   -3.5424  -31.8153 H   0  0  0  0  0  0
  -22.0582   -1.3529  -32.1316 H   0  0  0  0  0  0
  -22.1145   -0.9970  -30.3300 H   0  0  0  0  0  0
  -24.5989   -1.2826  -30.2953 H   0  0  0  0  0  0
  -24.6094   -1.6135  -32.0979 H   0  0  0  0  0  0
  -20.3616   -3.2304  -27.3801 H   0  0  0  0  0  0
  -21.1548   -5.3240  -25.3942 H   0  0  0  0  0  0
  -19.2412   -4.1852  -24.0900 H   0  0  0  0  0  0
  -18.9486   -3.1768  -25.4804 H   0  0  0  0  0  0
  -18.4717   -5.2232  -26.8677 H   0  0  0  0  0  0
  -19.4807   -7.1833  -26.0196 H   0  0  0  0  0  0
  -19.3254   -6.6382  -24.3549 H   0  0  0  0  0  0
  -17.2745   -8.0595  -26.0213 H   0  0  0  0  0  0
  -17.4780   -8.0625  -24.2616 H   0  0  0  0  0  0
  -15.5270   -6.5678  -24.8302 H   0  0  0  0  0  0
  -23.9958   -3.4038  -24.0520 H   0  0  0  0  0  0
  -25.0706   -3.6854  -22.0501 H   0  0  0  0  0  0
  -23.5678   -3.5856  -21.1713 H   0  0  0  0  0  0
  -24.5980   -5.5213  -19.8473 H   0  0  0  0  0  0
  -24.6771   -7.9918  -19.6207 H   0  0  0  0  0  0
  -24.1702   -9.4424  -21.5772 H   0  0  0  0  0  0
  -23.5692   -8.4166  -23.7617 H   0  0  0  0  0  0
  -23.5096   -5.9759  -24.0105 H   0  0  0  0  0  0
  -20.9379   -6.6851  -32.2277 H   0  0  0  0  0  0
  -18.2996   -7.5246  -30.9195 H   0  0  0  0  0  0
  -20.9584   -8.3998  -33.5227 H   0  0  0  0  0  0
  -20.5956  -10.0604  -35.2993 H   0  0  0  0  0  0
  -18.3895  -11.1874  -35.5346 H   0  0  0  0  0  0
  -16.5330  -10.6228  -33.9756 H   0  0  0  0  0  0
  -16.8787   -8.9450  -32.1875 H   0  0  0  0  0  0
  1  2  2  0  0  0
  2  3  1  0  0  0
  2 32  1  0  0  0
  3  4  1  0  0  0
  3 40  1  0  0  0
  4  5  1  0  0  0
  4  9  1  0  0  0
  4 41  1  0  0  0
  5  6  1  0  0  0
  5 42  1  0  0  0
  5 43  1  0  0  0
  6  8  1  0  0  0
  6  7  1  0  0  0
  6 44  1  0  0  0
  7  8  1  0  0  0
  7 45  1  0  0  0
  7 46  1  0  0  0
  8 47  1  0  0  0
  8 48  1  0  0  0
  9 10  2  0  0  0
  9 11  1  0  0  0
 11 12  1  0  0  0
 11 49  1  0  0  0
 12 13  1  0  0  0
 12 20  1  0  0  0
 12 50  1  0  0  0
 13 14  1  0  0  0
 13 51  1  0  0  0
 13 52  1  0  0  0
 14 18  1  0  0  0
 14 15  1  0  0  0
 14 53  1  0  0  0
 15 16  1  0  0  0
 15 54  1  0  0  0
 15 55  1  0  0  0
 16 17  1  0  0  0
 16 56  1  0  0  0
 16 57  1  0  0  0
 17 18  1  0  0  0
 17 58  1  0  0  0
 18 19  2  0  0  0
 20 21  2  0  0  0
 20 22  1  0  0  0
 22 23  2  0  0  0
 22 24  1  0  0  0
 24 25  1  0  0  0
 24 59  1  0  0  0
 25 26  1  0  0  0
 25 60  1  0  0  0
 25 61  1  0  0  0
 26 31  1  0  0  0
 26 27  2  0  0  0
 27 28  1  0  0  0
 27 62  1  0  0  0
 28 29  2  0  0  0
 28 63  1  0  0  0
 29 30  1  0  0  0
 29 64  1  0  0  0
 30 31  2  0  0  0
 30 65  1  0  0  0
 31 66  1  0  0  0
 32 33  2  0  0  0
 32 67  1  0  0  0
 33 34  1  0  0  0
 33 68  1  0  0  0
 34 39  1  0  0  0
 34 35  2  0  0  0
 35 36  1  0  0  0
 35 69  1  0  0  0
 36 37  2  0  0  0
 36 70  1  0  0  0
 37 38  1  0  0  0
 37 71  1  0  0  0
 38 39  2  0  0  0
 38 72  1  0  0  0
 39 73  1  0  0  0
M  END
$$$$
