
                    3D
 Schrodinger Suite 2019-4.
 66 68  0  0  1  0            999 V2000
  -25.3627   -1.9580  -23.1849 C   0  0  0  0  0  0
  -24.6225   -3.0422  -23.7910 N   0  0  0  0  0  0
  -25.1234   -4.1301  -24.4498 C   0  0  0  0  0  0
  -24.1979   -4.8867  -24.9861 N   0  0  0  0  0  0
  -23.0456   -4.3022  -24.6853 C   0  0  0  0  0  0
  -21.7407   -4.8141  -25.0374 C   0  0  0  0  0  0
  -20.9599   -4.9981  -24.1041 O   0  0  0  0  0  0
  -21.4302   -5.0361  -26.3594 N   0  0  0  0  0  0
  -22.2977   -4.5975  -27.3930 C   0  0  0  0  0  0
  -23.1914   -5.4695  -28.0203 C   0  0  0  0  0  0
  -23.9151   -5.0423  -29.1324 C   0  0  0  0  0  0
  -23.7677   -3.7355  -29.6300 C   0  0  0  0  0  0
  -24.4747   -3.2590  -30.9256 C   0  0  0  0  0  0
  -25.4188   -2.0826  -30.6082 C   0  0  0  0  0  0
  -25.3303   -4.3608  -31.5941 C   0  0  0  0  0  0
  -23.4120   -2.8144  -31.9614 C   0  0  0  0  0  0
  -22.9284   -2.8520  -28.9375 C   0  0  0  0  0  0
  -22.2008   -3.2763  -27.8280 C   0  0  0  0  0  0
  -20.2453   -5.8460  -26.8083 C   0  0  2  0  0  0
  -20.5707   -7.3054  -27.2220 C   0  0  0  0  0  0
  -21.5235   -7.9004  -26.7210 O   0  0  0  0  0  0
  -19.7293   -7.8433  -28.1284 N   0  0  0  0  0  0
  -19.7438   -9.1940  -28.6965 C   0  0  0  0  0  0
  -19.4857  -10.2540  -27.6032 C   0  0  0  0  0  0
  -18.5963   -9.2616  -29.7263 C   0  0  0  0  0  0
  -21.0750   -9.4873  -29.4269 C   0  0  0  0  0  0
  -18.9359   -5.6743  -26.0388 C   0  0  0  0  0  0
  -18.1877   -6.7534  -25.5284 C   0  0  0  0  0  0
  -16.9318   -6.5381  -24.9664 C   0  0  0  0  0  0
  -16.4530   -5.2321  -24.9034 C   0  0  0  0  0  0
  -17.1675   -4.1645  -25.3346 N   0  0  0  0  0  0
  -18.3852   -4.3953  -25.8895 C   0  0  0  0  0  0
  -23.2659   -3.1660  -23.9101 C   0  0  0  0  0  0
  -26.3260   -1.8537  -23.6817 H   0  0  0  0  0  0
  -25.5177   -2.1606  -22.1243 H   0  0  0  0  0  0
  -24.8060   -1.0291  -23.3078 H   0  0  0  0  0  0
  -26.1919   -4.2898  -24.4988 H   0  0  0  0  0  0
  -23.3151   -6.4855  -27.6786 H   0  0  0  0  0  0
  -24.5624   -5.7617  -29.6090 H   0  0  0  0  0  0
  -25.9159   -1.7080  -31.5039 H   0  0  0  0  0  0
  -26.1957   -2.4069  -29.9144 H   0  0  0  0  0  0
  -24.8893   -1.2423  -30.1609 H   0  0  0  0  0  0
  -25.8209   -4.0030  -32.5005 H   0  0  0  0  0  0
  -24.7131   -5.2070  -31.8835 H   0  0  0  0  0  0
  -26.1154   -4.7268  -30.9346 H   0  0  0  0  0  0
  -23.8695   -2.5171  -32.9029 H   0  0  0  0  0  0
  -22.8183   -1.9693  -31.6125 H   0  0  0  0  0  0
  -22.7248   -3.6295  -32.1885 H   0  0  0  0  0  0
  -22.7993   -1.8316  -29.2706 H   0  0  0  0  0  0
  -21.5256   -2.5888  -27.3363 H   0  0  0  0  0  0
  -20.0511   -5.4283  -27.7969 H   0  0  0  0  0  0
  -18.9729   -7.2618  -28.4498 H   0  0  0  0  0  0
  -19.4658  -11.2625  -28.0188 H   0  0  0  0  0  0
  -18.5281  -10.0852  -27.1073 H   0  0  0  0  0  0
  -20.2549  -10.2359  -26.8300 H   0  0  0  0  0  0
  -18.5371  -10.2413  -30.2027 H   0  0  0  0  0  0
  -18.7204   -8.5242  -30.5219 H   0  0  0  0  0  0
  -17.6255   -9.0706  -29.2627 H   0  0  0  0  0  0
  -21.0587  -10.4607  -29.9182 H   0  0  0  0  0  0
  -21.9235   -9.4906  -28.7428 H   0  0  0  0  0  0
  -21.2823   -8.7412  -30.1946 H   0  0  0  0  0  0
  -18.5446   -7.7720  -25.5872 H   0  0  0  0  0  0
  -16.3310   -7.3651  -24.6093 H   0  0  0  0  0  0
  -15.4676   -5.0380  -24.5074 H   0  0  0  0  0  0
  -18.9171   -3.5250  -26.2432 H   0  0  0  0  0  0
  -22.5924   -2.4440  -23.4710 H   0  0  0  0  0  0
  1  2  1  0  0  0
  1 34  1  0  0  0
  1 35  1  0  0  0
  1 36  1  0  0  0
  2 33  1  0  0  0
  2  3  1  0  0  0
  3  4  2  0  0  0
  3 37  1  0  0  0
  4  5  1  0  0  0
  5  6  1  0  0  0
  5 33  2  0  0  0
  6  7  2  0  0  0
  6  8  1  0  0  0
  8  9  1  0  0  0
  8 19  1  0  0  0
  9 18  1  0  0  0
  9 10  2  0  0  0
 10 11  1  0  0  0
 10 38  1  0  0  0
 11 12  2  0  0  0
 11 39  1  0  0  0
 12 13  1  0  0  0
 12 17  1  0  0  0
 13 14  1  0  0  0
 13 15  1  0  0  0
 13 16  1  0  0  0
 14 40  1  0  0  0
 14 41  1  0  0  0
 14 42  1  0  0  0
 15 43  1  0  0  0
 15 44  1  0  0  0
 15 45  1  0  0  0
 16 46  1  0  0  0
 16 47  1  0  0  0
 16 48  1  0  0  0
 17 18  2  0  0  0
 17 49  1  0  0  0
 18 50  1  0  0  0
 19 20  1  0  0  0
 19 27  1  0  0  0
 19 51  1  0  0  0
 20 21  2  0  0  0
 20 22  1  0  0  0
 22 23  1  0  0  0
 22 52  1  0  0  0
 23 24  1  0  0  0
 23 25  1  0  0  0
 23 26  1  0  0  0
 24 53  1  0  0  0
 24 54  1  0  0  0
 24 55  1  0  0  0
 25 56  1  0  0  0
 25 57  1  0  0  0
 25 58  1  0  0  0
 26 59  1  0  0  0
 26 60  1  0  0  0
 26 61  1  0  0  0
 27 32  1  0  0  0
 27 28  2  0  0  0
 28 29  1  0  0  0
 28 62  1  0  0  0
 29 30  2  0  0  0
 29 63  1  0  0  0
 30 31  1  0  0  0
 30 64  1  0  0  0
 31 32  2  0  0  0
 32 65  1  0  0  0
 33 66  1  0  0  0
M  END
$$$$
