
                    3D
 Schrodinger Suite 2019-4.
 97 99  0  0  1  0            999 V2000
  -16.9887  -12.5631  -39.0706 C   0  0  0  0  0  0
  -17.5901  -11.5296  -38.1840 C   0  0  0  0  0  0
  -17.3272  -11.1377  -36.9033 C   0  0  0  0  0  0
  -18.2381  -10.0653  -36.6947 C   0  0  0  0  0  0
  -18.1904   -9.2369  -35.4499 C   0  0  0  0  0  0
  -17.6707   -9.6493  -34.4132 O   0  0  0  0  0  0
  -18.6454   -7.9896  -35.6181 N   0  0  0  0  0  0
  -18.5067   -6.9057  -34.6606 C   0  0  1  0  0  0
  -18.5447   -5.6038  -35.4625 C   0  0  0  0  0  0
  -19.6835   -6.9295  -33.6815 C   0  0  0  0  0  0
  -20.8124   -7.2376  -34.0682 O   0  0  0  0  0  0
  -19.4048   -6.6127  -32.4091 N   0  0  0  0  0  0
  -20.3247   -6.7871  -31.2885 C   0  0  2  0  0  0
  -20.3459   -5.5196  -30.4328 C   0  0  0  0  0  0
  -19.2970   -5.0819  -29.9631 O   0  0  0  0  0  0
  -21.5492   -4.9832  -30.1712 N   0  0  0  0  0  0
  -21.7802   -3.8601  -29.2670 C   0  0  1  0  0  0
  -23.1978   -3.2850  -29.4840 C   0  0  0  0  0  0
  -23.4030   -2.5880  -30.8501 C   0  0  0  0  0  0
  -24.4434   -1.4684  -30.7326 C   0  0  0  0  0  0
  -23.8117   -3.5658  -31.9614 C   0  0  0  0  0  0
  -21.6337   -4.3626  -27.8214 C   0  0  0  0  0  0
  -22.3417   -5.2847  -27.4125 O   0  0  0  0  0  0
  -20.6656   -3.7957  -27.0850 N   0  0  0  0  0  0
  -20.1866   -4.3236  -25.8109 C   0  0  2  0  0  0
  -20.7647   -3.5745  -24.6529 C   0  0  0  0  0  0
  -21.7899   -3.9516  -23.8900 C   0  0  0  0  0  0
  -22.1861   -3.0736  -22.8010 C   0  0  0  0  0  0
  -21.8710   -1.8963  -22.6947 O   0  0  0  0  0  0
  -22.9798   -3.6792  -21.9680 O   0  0  0  0  0  0
  -23.8059   -2.8699  -21.1783 C   0  0  0  0  0  0
  -24.9424   -3.6943  -20.7021 C   0  0  0  0  0  0
  -26.0208   -3.8667  -21.5757 C   0  0  0  0  0  0
  -27.0254   -4.7818  -21.2444 C   0  0  0  0  0  0
  -27.0159   -5.4263  -19.9929 C   0  0  0  0  0  0
  -25.9466   -5.2224  -19.1042 C   0  0  0  0  0  0
  -24.8830   -4.3906  -19.4832 C   0  0  0  0  0  0
  -18.6634   -4.1825  -25.7039 C   0  0  0  0  0  0
  -17.8837   -5.4195  -26.1414 C   0  0  2  0  0  0
  -18.3087   -6.7333  -25.4573 C   0  0  0  0  0  0
  -17.0060   -7.4876  -25.1763 C   0  0  0  0  0  0
  -15.9995   -6.4510  -25.1942 N   0  0  0  0  0  0
  -16.4367   -5.3026  -25.6970 C   0  0  0  0  0  0
  -15.7812   -4.2696  -25.7913 O   0  0  0  0  0  0
  -19.9402   -8.0497  -30.4688 C   0  0  0  0  0  0
  -19.7414   -9.3124  -31.3295 C   0  0  0  0  0  0
  -20.9823   -8.3309  -29.3755 C   0  0  0  0  0  0
  -19.0342   -9.8851  -37.7345 N   0  0  0  0  0  0
  -18.6030  -10.7919  -38.7066 O   0  0  0  0  0  0
  -16.3987  -13.2779  -38.4948 H   0  0  0  0  0  0
  -17.7637  -13.1152  -39.6036 H   0  0  0  0  0  0
  -16.3342  -12.0976  -39.8073 H   0  0  0  0  0  0
  -16.5682  -11.5250  -36.2403 H   0  0  0  0  0  0
  -19.0407   -7.7564  -36.5181 H   0  0  0  0  0  0
  -17.5600   -6.9869  -34.1230 H   0  0  0  0  0  0
  -18.3837   -4.7496  -34.8135 H   0  0  0  0  0  0
  -17.7524   -5.5919  -36.2089 H   0  0  0  0  0  0
  -19.4926   -5.4679  -35.9825 H   0  0  0  0  0  0
  -18.4584   -6.3400  -32.1752 H   0  0  0  0  0  0
  -21.3376   -6.9343  -31.6692 H   0  0  0  0  0  0
  -22.3657   -5.4173  -30.5754 H   0  0  0  0  0  0
  -21.0410   -3.0889  -29.4688 H   0  0  0  0  0  0
  -23.3663   -2.5456  -28.6994 H   0  0  0  0  0  0
  -23.9625   -4.0490  -29.3320 H   0  0  0  0  0  0
  -22.4657   -2.1158  -31.1494 H   0  0  0  0  0  0
  -24.7166   -1.0673  -31.7054 H   0  0  0  0  0  0
  -25.3526   -1.8195  -30.2492 H   0  0  0  0  0  0
  -24.0445   -0.6431  -30.1462 H   0  0  0  0  0  0
  -23.9852   -3.0355  -32.8944 H   0  0  0  0  0  0
  -23.0496   -4.3156  -32.1624 H   0  0  0  0  0  0
  -24.7296   -4.0872  -31.6994 H   0  0  0  0  0  0
  -20.1615   -3.0172  -27.4851 H   0  0  0  0  0  0
  -20.4898   -5.3661  -25.7021 H   0  0  0  0  0  0
  -20.2412   -2.6737  -24.4077 H   0  0  0  0  0  0
  -22.3247   -4.8745  -24.0602 H   0  0  0  0  0  0
  -24.2277   -2.1466  -21.8640 H   0  0  0  0  0  0
  -23.2858   -2.3491  -20.3753 H   0  0  0  0  0  0
  -26.0278   -3.3723  -22.5351 H   0  0  0  0  0  0
  -27.7954   -5.0006  -21.9696 H   0  0  0  0  0  0
  -27.8141   -6.1047  -19.7294 H   0  0  0  0  0  0
  -25.9258   -5.7324  -18.1519 H   0  0  0  0  0  0
  -24.0572   -4.2670  -18.8090 H   0  0  0  0  0  0
  -18.3864   -3.9867  -24.6644 H   0  0  0  0  0  0
  -18.3264   -3.3036  -26.2560 H   0  0  0  0  0  0
  -17.9136   -5.5313  -27.2261 H   0  0  0  0  0  0
  -18.9885   -7.3208  -26.0758 H   0  0  0  0  0  0
  -18.8158   -6.5317  -24.5112 H   0  0  0  0  0  0
  -16.7818   -8.2109  -25.9610 H   0  0  0  0  0  0
  -17.0248   -8.0087  -24.2184 H   0  0  0  0  0  0
  -15.0545   -6.6005  -24.8607 H   0  0  0  0  0  0
  -18.9865   -7.8621  -29.9708 H   0  0  0  0  0  0
  -19.5524  -10.1894  -30.7103 H   0  0  0  0  0  0
  -20.6238   -9.5214  -31.9348 H   0  0  0  0  0  0
  -18.8872   -9.2147  -31.9984 H   0  0  0  0  0  0
  -20.8025   -9.2869  -28.8871 H   0  0  0  0  0  0
  -20.9695   -7.5629  -28.6016 H   0  0  0  0  0  0
  -21.9902   -8.3727  -29.7892 H   0  0  0  0  0  0
  1  2  1  0  0  0
  1 50  1  0  0  0
  1 51  1  0  0  0
  1 52  1  0  0  0
  2 49  1  0  0  0
  2  3  2  0  0  0
  3  4  1  0  0  0
  3 53  1  0  0  0
  4  5  1  0  0  0
  4 48  2  0  0  0
  5  6  2  0  0  0
  5  7  1  0  0  0
  7  8  1  0  0  0
  7 54  1  0  0  0
  8  9  1  0  0  0
  8 10  1  0  0  0
  8 55  1  0  0  0
  9 56  1  0  0  0
  9 57  1  0  0  0
  9 58  1  0  0  0
 10 11  2  0  0  0
 10 12  1  0  0  0
 12 13  1  0  0  0
 12 59  1  0  0  0
 13 14  1  0  0  0
 13 45  1  0  0  0
 13 60  1  0  0  0
 14 15  2  0  0  0
 14 16  1  0  0  0
 16 17  1  0  0  0
 16 61  1  0  0  0
 17 18  1  0  0  0
 17 22  1  0  0  0
 17 62  1  0  0  0
 18 19  1  0  0  0
 18 63  1  0  0  0
 18 64  1  0  0  0
 19 20  1  0  0  0
 19 21  1  0  0  0
 19 65  1  0  0  0
 20 66  1  0  0  0
 20 67  1  0  0  0
 20 68  1  0  0  0
 21 69  1  0  0  0
 21 70  1  0  0  0
 21 71  1  0  0  0
 22 23  2  0  0  0
 22 24  1  0  0  0
 24 25  1  0  0  0
 24 72  1  0  0  0
 25 26  1  0  0  0
 25 38  1  0  0  0
 25 73  1  0  0  0
 26 27  2  0  0  0
 26 74  1  0  0  0
 27 28  1  0  0  0
 27 75  1  0  0  0
 28 29  2  0  0  0
 28 30  1  0  0  0
 30 31  1  0  0  0
 31 32  1  0  0  0
 31 76  1  0  0  0
 31 77  1  0  0  0
 32 37  1  0  0  0
 32 33  2  0  0  0
 33 34  1  0  0  0
 33 78  1  0  0  0
 34 35  2  0  0  0
 34 79  1  0  0  0
 35 36  1  0  0  0
 35 80  1  0  0  0
 36 37  2  0  0  0
 36 81  1  0  0  0
 37 82  1  0  0  0
 38 39  1  0  0  0
 38 83  1  0  0  0
 38 84  1  0  0  0
 39 43  1  0  0  0
 39 40  1  0  0  0
 39 85  1  0  0  0
 40 41  1  0  0  0
 40 86  1  0  0  0
 40 87  1  0  0  0
 41 42  1  0  0  0
 41 88  1  0  0  0
 41 89  1  0  0  0
 42 43  1  0  0  0
 42 90  1  0  0  0
 43 44  2  0  0  0
 45 46  1  0  0  0
 45 47  1  0  0  0
 45 91  1  0  0  0
 46 92  1  0  0  0
 46 93  1  0  0  0
 46 94  1  0  0  0
 47 95  1  0  0  0
 47 96  1  0  0  0
 47 97  1  0  0  0
 48 49  1  0  0  0
M  END
$$$$
