
                    3D
 Schrodinger Suite 2019-4.
 82 83  0  0  1  0            999 V2000
  -24.5444   -3.4332  -20.8816 C   0  0  0  0  0  0
  -23.7500   -3.9228  -21.9262 O   0  0  0  0  0  0
  -22.7061   -3.2276  -22.3544 C   0  0  0  0  0  0
  -22.2812   -2.1893  -21.8449 O   0  0  0  0  0  0
  -22.1217   -3.9126  -23.4997 C   0  0  0  0  0  0
  -20.9913   -3.4950  -24.0772 C   0  0  0  0  0  0
  -20.3509   -4.2263  -25.2288 C   0  0  2  0  0  0
  -18.8228   -4.1411  -25.1274 C   0  0  0  0  0  0
  -18.1051   -5.2559  -25.9036 C   0  0  2  0  0  0
  -18.4759   -6.6818  -25.4516 C   0  0  0  0  0  0
  -17.1621   -7.4681  -25.4187 C   0  0  0  0  0  0
  -16.1422   -6.4461  -25.3934 N   0  0  0  0  0  0
  -16.6060   -5.2314  -25.6640 C   0  0  0  0  0  0
  -15.9260   -4.2143  -25.7333 O   0  0  0  0  0  0
  -20.8184   -3.7535  -26.5342 N   0  0  0  0  0  0
  -21.5209   -4.5050  -27.3990 C   0  0  0  0  0  0
  -21.9820   -5.6105  -27.1071 O   0  0  0  0  0  0
  -21.7014   -3.9591  -28.8273 C   0  0  2  0  0  0
  -23.1484   -3.4591  -29.0180 C   0  0  0  0  0  0
  -23.4499   -2.8638  -30.4145 C   0  0  0  0  0  0
  -22.8588   -1.4630  -30.6125 C   0  0  0  0  0  0
  -24.9525   -2.8210  -30.6651 C   0  0  0  0  0  0
  -21.4380   -5.0292  -29.7871 N   0  0  0  0  0  0
  -20.2244   -5.5237  -30.0705 C   0  0  0  0  0  0
  -19.1872   -5.0858  -29.5808 O   0  0  0  0  0  0
  -20.1771   -6.7475  -30.9843 C   0  0  1  0  0  0
  -19.3791   -6.4299  -32.1629 N   0  0  0  0  0  0
  -19.8852   -6.4400  -33.4458 C   0  0  0  0  0  0
  -21.0553   -6.6590  -33.7553 O   0  0  0  0  0  0
  -18.8971   -6.1718  -34.3111 O   0  0  0  0  0  0
  -19.1589   -6.1582  -35.7077 C   0  0  0  0  0  0
  -19.1327   -7.5435  -36.3311 C   0  0  0  0  0  0
  -17.9383   -8.0309  -36.8956 C   0  0  0  0  0  0
  -17.8844   -9.3241  -37.4487 C   0  0  0  0  0  0
  -19.0338  -10.1368  -37.4447 C   0  0  0  0  0  0
  -20.2373   -9.6499  -36.8968 C   0  0  0  0  0  0
  -20.2859   -8.3563  -36.3426 C   0  0  0  0  0  0
  -19.5884   -7.9799  -30.2512 C   0  0  0  0  0  0
  -19.3964   -9.1883  -31.1838 C   0  0  0  0  0  0
  -20.4906   -8.3794  -29.0733 C   0  0  0  0  0  0
  -24.9761   -4.2702  -20.3326 H   0  0  0  0  0  0
  -23.9691   -2.8228  -20.1876 H   0  0  0  0  0  0
  -25.3621   -2.8328  -21.2814 H   0  0  0  0  0  0
  -22.6248   -4.7905  -23.8805 H   0  0  0  0  0  0
  -20.4769   -2.6285  -23.6974 H   0  0  0  0  0  0
  -20.6452   -5.2667  -25.0872 H   0  0  0  0  0  0
  -18.5271   -4.2058  -24.0785 H   0  0  0  0  0  0
  -18.4898   -3.1625  -25.4743 H   0  0  0  0  0  0
  -18.2721   -5.1474  -26.9764 H   0  0  0  0  0  0
  -19.2067   -7.1474  -26.1135 H   0  0  0  0  0  0
  -18.9036   -6.6676  -24.4483 H   0  0  0  0  0  0
  -17.0327   -8.0708  -26.3178 H   0  0  0  0  0  0
  -17.0932   -8.1208  -24.5481 H   0  0  0  0  0  0
  -15.1610   -6.6585  -25.2570 H   0  0  0  0  0  0
  -20.5063   -2.8413  -26.8370 H   0  0  0  0  0  0
  -20.9953   -3.1557  -29.0081 H   0  0  0  0  0  0
  -23.3819   -2.7157  -28.2565 H   0  0  0  0  0  0
  -23.8297   -4.2905  -28.8321 H   0  0  0  0  0  0
  -23.0269   -3.5104  -31.1842 H   0  0  0  0  0  0
  -23.1498   -1.0502  -31.5770 H   0  0  0  0  0  0
  -23.2001   -0.7716  -29.8433 H   0  0  0  0  0  0
  -21.7732   -1.4789  -30.5866 H   0  0  0  0  0  0
  -25.1821   -2.3767  -31.6348 H   0  0  0  0  0  0
  -25.3414   -3.8348  -30.6691 H   0  0  0  0  0  0
  -25.4740   -2.2526  -29.8952 H   0  0  0  0  0  0
  -22.2430   -5.4660  -30.2111 H   0  0  0  0  0  0
  -21.2001   -6.9879  -31.2823 H   0  0  0  0  0  0
  -18.3963   -6.2159  -32.0522 H   0  0  0  0  0  0
  -18.3759   -5.5612  -36.1724 H   0  0  0  0  0  0
  -20.1047   -5.6620  -35.9268 H   0  0  0  0  0  0
  -17.0469   -7.4270  -36.8758 H   0  0  0  0  0  0
  -16.9621   -9.6925  -37.8734 H   0  0  0  0  0  0
  -18.9955  -11.1276  -37.8732 H   0  0  0  0  0  0
  -21.1270  -10.2624  -36.9117 H   0  0  0  0  0  0
  -21.2148   -7.9870  -35.9365 H   0  0  0  0  0  0
  -18.6051   -7.7252  -29.8515 H   0  0  0  0  0  0
  -19.0349  -10.0567  -30.6327 H   0  0  0  0  0  0
  -20.3366   -9.4673  -31.6603 H   0  0  0  0  0  0
  -18.6681   -8.9854  -31.9682 H   0  0  0  0  0  0
  -20.4584   -7.6442  -28.2700 H   0  0  0  0  0  0
  -21.5280   -8.4847  -29.3937 H   0  0  0  0  0  0
  -20.1985   -9.3347  -28.6467 H   0  0  0  0  0  0
  1  2  1  0  0  0
  1 41  1  0  0  0
  1 42  1  0  0  0
  1 43  1  0  0  0
  2  3  1  0  0  0
  3  4  2  0  0  0
  3  5  1  0  0  0
  5  6  2  0  0  0
  5 44  1  0  0  0
  6  7  1  0  0  0
  6 45  1  0  0  0
  7  8  1  0  0  0
  7 15  1  0  0  0
  7 46  1  0  0  0
  8  9  1  0  0  0
  8 47  1  0  0  0
  8 48  1  0  0  0
  9 13  1  0  0  0
  9 10  1  0  0  0
  9 49  1  0  0  0
 10 11  1  0  0  0
 10 50  1  0  0  0
 10 51  1  0  0  0
 11 12  1  0  0  0
 11 52  1  0  0  0
 11 53  1  0  0  0
 12 13  1  0  0  0
 12 54  1  0  0  0
 13 14  2  0  0  0
 15 16  1  0  0  0
 15 55  1  0  0  0
 16 17  2  0  0  0
 16 18  1  0  0  0
 18 19  1  0  0  0
 18 23  1  0  0  0
 18 56  1  0  0  0
 19 20  1  0  0  0
 19 57  1  0  0  0
 19 58  1  0  0  0
 20 21  1  0  0  0
 20 22  1  0  0  0
 20 59  1  0  0  0
 21 60  1  0  0  0
 21 61  1  0  0  0
 21 62  1  0  0  0
 22 63  1  0  0  0
 22 64  1  0  0  0
 22 65  1  0  0  0
 23 24  1  0  0  0
 23 66  1  0  0  0
 24 25  2  0  0  0
 24 26  1  0  0  0
 26 27  1  0  0  0
 26 38  1  0  0  0
 26 67  1  0  0  0
 27 28  1  0  0  0
 27 68  1  0  0  0
 28 29  2  0  0  0
 28 30  1  0  0  0
 30 31  1  0  0  0
 31 32  1  0  0  0
 31 69  1  0  0  0
 31 70  1  0  0  0
 32 37  1  0  0  0
 32 33  2  0  0  0
 33 34  1  0  0  0
 33 71  1  0  0  0
 34 35  2  0  0  0
 34 72  1  0  0  0
 35 36  1  0  0  0
 35 73  1  0  0  0
 36 37  2  0  0  0
 36 74  1  0  0  0
 37 75  1  0  0  0
 38 39  1  0  0  0
 38 40  1  0  0  0
 38 76  1  0  0  0
 39 77  1  0  0  0
 39 78  1  0  0  0
 39 79  1  0  0  0
 40 80  1  0  0  0
 40 81  1  0  0  0
 40 82  1  0  0  0
M  END
$$$$
