
                    3D
 Schrodinger Suite 2019-4.
 59 61  0  0  1  0            999 V2000
  -21.7412   -3.7902  -23.7576 C   0  0  0  0  0  0
  -21.3344   -3.3886  -22.6680 O   0  0  0  0  0  0
  -20.9028   -4.6400  -24.6904 C   0  0  2  0  0  0
  -19.3762   -4.5248  -24.4457 C   0  0  0  0  0  0
  -18.5553   -5.5450  -25.2815 C   0  0  2  0  0  0
  -18.7105   -6.9891  -24.8265 C   0  0  0  0  0  0
  -17.3500   -7.6104  -25.0530 C   0  0  0  0  0  0
  -16.4683   -6.4583  -24.9600 N   0  0  0  0  0  0
  -17.0506   -5.2708  -25.1869 C   0  0  0  0  0  0
  -16.4959   -4.1897  -25.3561 O   0  0  0  0  0  0
  -21.2719   -4.2072  -26.0388 N   0  0  0  0  0  0
  -21.7402   -5.0196  -27.0008 C   0  0  0  0  0  0
  -22.0860   -6.1888  -26.8132 O   0  0  0  0  0  0
  -21.8319   -4.4075  -28.4091 C   0  0  2  0  0  0
  -23.2442   -3.8311  -28.7024 C   0  0  0  0  0  0
  -23.3294   -3.1869  -30.0742 C   0  0  0  0  0  0
  -22.8083   -1.8912  -30.2504 C   0  0  0  0  0  0
  -22.5984   -1.3994  -31.5298 C   0  0  0  0  0  0
  -22.8893   -2.1891  -32.6348 C   0  0  0  0  0  0
  -23.4271   -3.4588  -32.4809 C   0  0  0  0  0  0
  -23.6438   -3.9685  -31.2077 C   0  0  0  0  0  0
  -21.4867   -5.3811  -29.4490 N   0  0  0  0  0  0
  -20.2643   -5.8414  -29.7474 C   0  0  0  0  0  0
  -19.2365   -5.4894  -29.1656 O   0  0  0  0  0  0
  -20.2973   -6.7743  -30.8471 C   0  0  0  0  0  0
  -19.1957   -7.3914  -31.3298 C   0  0  0  0  0  0
  -19.1784   -8.3315  -32.4703 C   0  0  0  0  0  0
  -20.2534   -8.4411  -33.3669 C   0  0  0  0  0  0
  -20.2071   -9.3408  -34.4322 C   0  0  0  0  0  0
  -19.0905  -10.1562  -34.6060 C   0  0  0  0  0  0
  -18.0220  -10.0664  -33.7152 C   0  0  0  0  0  0
  -16.5160  -11.2028  -33.9362 Br  0  0  0  0  0  0
  -18.0607   -9.1563  -32.6586 C   0  0  0  0  0  0
  -22.7576   -3.5808  -24.0974 H   0  0  0  0  0  0
  -21.2038   -5.6768  -24.5181 H   0  0  0  0  0  0
  -19.1546   -4.6653  -23.3849 H   0  0  0  0  0  0
  -19.0576   -3.5088  -24.6836 H   0  0  0  0  0  0
  -18.8044   -5.4517  -26.3394 H   0  0  0  0  0  0
  -19.5138   -7.5268  -25.3341 H   0  0  0  0  0  0
  -18.9199   -7.0193  -23.7570 H   0  0  0  0  0  0
  -17.2565   -8.0750  -26.0364 H   0  0  0  0  0  0
  -17.1061   -8.3585  -24.2979 H   0  0  0  0  0  0
  -15.4612   -6.5698  -24.9796 H   0  0  0  0  0  0
  -20.9825   -3.2721  -26.2963 H   0  0  0  0  0  0
  -21.1202   -3.5798  -28.4801 H   0  0  0  0  0  0
  -23.5016   -3.0750  -27.9573 H   0  0  0  0  0  0
  -24.0055   -4.6099  -28.6282 H   0  0  0  0  0  0
  -22.5175   -1.2998  -29.3928 H   0  0  0  0  0  0
  -22.1696   -0.4168  -31.6610 H   0  0  0  0  0  0
  -22.6890   -1.8096  -33.6244 H   0  0  0  0  0  0
  -23.6449   -4.0569  -33.3525 H   0  0  0  0  0  0
  -24.0055   -4.9801  -31.0931 H   0  0  0  0  0  0
  -22.2727   -5.7479  -29.9625 H   0  0  0  0  0  0
  -21.2671   -6.9671  -31.2814 H   0  0  0  0  0  0
  -18.2351   -7.1912  -30.8720 H   0  0  0  0  0  0
  -21.1329   -7.8236  -33.2598 H   0  0  0  0  0  0
  -21.0318   -9.4025  -35.1244 H   0  0  0  0  0  0
  -19.0527  -10.8512  -35.4284 H   0  0  0  0  0  0
  -17.2198   -9.0991  -31.9812 H   0  0  0  0  0  0
  1  2  2  0  0  0
  1  3  1  0  0  0
  1 34  1  0  0  0
  3  4  1  0  0  0
  3 11  1  0  0  0
  3 35  1  0  0  0
  4  5  1  0  0  0
  4 36  1  0  0  0
  4 37  1  0  0  0
  5  9  1  0  0  0
  5  6  1  0  0  0
  5 38  1  0  0  0
  6  7  1  0  0  0
  6 39  1  0  0  0
  6 40  1  0  0  0
  7  8  1  0  0  0
  7 41  1  0  0  0
  7 42  1  0  0  0
  8  9  1  0  0  0
  8 43  1  0  0  0
  9 10  2  0  0  0
 11 12  1  0  0  0
 11 44  1  0  0  0
 12 13  2  0  0  0
 12 14  1  0  0  0
 14 15  1  0  0  0
 14 22  1  0  0  0
 14 45  1  0  0  0
 15 16  1  0  0  0
 15 46  1  0  0  0
 15 47  1  0  0  0
 16 21  1  0  0  0
 16 17  2  0  0  0
 17 18  1  0  0  0
 17 48  1  0  0  0
 18 19  2  0  0  0
 18 49  1  0  0  0
 19 20  1  0  0  0
 19 50  1  0  0  0
 20 21  2  0  0  0
 20 51  1  0  0  0
 21 52  1  0  0  0
 22 23  1  0  0  0
 22 53  1  0  0  0
 23 24  2  0  0  0
 23 25  1  0  0  0
 25 26  2  0  0  0
 25 54  1  0  0  0
 26 27  1  0  0  0
 26 55  1  0  0  0
 27 33  1  0  0  0
 27 28  2  0  0  0
 28 29  1  0  0  0
 28 56  1  0  0  0
 29 30  2  0  0  0
 29 57  1  0  0  0
 30 31  1  0  0  0
 30 58  1  0  0  0
 31 32  1  0  0  0
 31 33  2  0  0  0
 33 59  1  0  0  0
M  END
$$$$
