
                    3D
 Schrodinger Suite 2019-4.
 80 80  0  0  1  0            999 V2000
  -31.9324  -11.5502  -24.0157 C   0  0  0  0  0  0
  -31.4729  -10.6782  -25.1754 C   0  0  0  0  0  0
  -31.8799  -10.9229  -26.3078 O   0  0  0  0  0  0
  -30.6535   -9.6569  -24.8674 N   0  0  0  0  0  0
  -30.2726   -8.5568  -25.7526 C   0  0  1  0  0  0
  -31.1805   -7.3510  -25.4771 C   0  0  0  0  0  0
  -32.5133   -7.6811  -25.8173 O   0  0  0  0  0  0
  -28.7812   -8.2397  -25.6303 C   0  0  0  0  0  0
  -28.3834   -7.4968  -24.7344 O   0  0  0  0  0  0
  -27.9670   -8.8168  -26.5274 N   0  0  0  0  0  0
  -26.5114   -8.7373  -26.5263 C   0  0  1  0  0  0
  -25.9579  -10.1660  -26.6701 C   0  0  0  0  0  0
  -26.0218   -7.8717  -27.6930 C   0  0  0  0  0  0
  -26.0054   -8.3110  -28.8452 O   0  0  0  0  0  0
  -25.5740   -6.6506  -27.3633 N   0  0  0  0  0  0
  -24.7735   -5.7977  -28.2359 C   0  0  2  0  0  0
  -23.2959   -6.1162  -27.9861 C   0  0  0  0  0  0
  -22.8936   -6.5295  -26.8952 O   0  0  0  0  0  0
  -22.4840   -5.8525  -29.0074 N   0  0  0  0  0  0
  -21.0385   -5.8479  -28.9354 C   0  0  1  0  0  0
  -20.5895   -5.8591  -30.4041 C   0  0  0  0  0  0
  -19.0900   -6.0204  -30.6399 C   0  0  0  0  0  0
  -18.8430   -6.0582  -32.1592 C   0  0  0  0  0  0
  -18.5543   -7.2658  -29.9049 C   0  0  0  0  0  0
  -20.6217   -4.5559  -28.2147 C   0  0  0  0  0  0
  -20.9718   -3.4770  -28.6812 O   0  0  0  0  0  0
  -19.9671   -4.6833  -27.0479 N   0  0  0  0  0  0
  -19.7466   -3.6107  -26.0699 C   0  0  2  0  0  0
  -18.5902   -2.7080  -26.4852 C   0  0  0  0  0  0
  -17.5371   -3.1254  -26.9575 O   0  0  0  0  0  0
  -19.3877   -4.2318  -24.7005 C   0  0  0  0  0  0
  -18.1701   -5.1294  -24.7084 C   0  0  0  0  0  0
  -18.0556   -6.4921  -24.8666 C   0  0  0  0  0  0
  -16.7087   -6.8431  -24.9611 N   0  0  0  0  0  0
  -16.0632   -5.6892  -24.8534 C   0  0  0  0  0  0
  -16.8704   -4.6514  -24.6454 N   0  0  0  0  0  0
  -25.0374   -4.2993  -27.9067 C   0  0  0  0  0  0
  -24.5683   -3.3654  -29.0416 C   0  0  0  0  0  0
  -24.4523   -3.8182  -26.5612 C   0  0  0  0  0  0
  -32.1493  -10.9422  -23.1372 H   0  0  0  0  0  0
  -32.8369  -12.0980  -24.2788 H   0  0  0  0  0  0
  -31.1615  -12.2749  -23.7568 H   0  0  0  0  0  0
  -30.3526   -9.5738  -23.9070 H   0  0  0  0  0  0
  -30.4273   -8.8444  -26.7819 H   0  0  0  0  0  0
  -30.8474   -6.4898  -26.0549 H   0  0  0  0  0  0
  -31.1334   -7.0576  -24.4316 H   0  0  0  0  0  0
  -32.7804   -8.4198  -25.2905 H   0  0  0  0  0  0
  -28.3897   -9.3774  -27.2575 H   0  0  0  0  0  0
  -26.1416   -8.3239  -25.5855 H   0  0  0  0  0  0
  -24.8676  -10.1632  -26.6922 H   0  0  0  0  0  0
  -26.2636  -10.7880  -25.8281 H   0  0  0  0  0  0
  -26.3096  -10.6540  -27.5811 H   0  0  0  0  0  0
  -25.6593   -6.3560  -26.4006 H   0  0  0  0  0  0
  -25.0266   -5.9942  -29.2795 H   0  0  0  0  0  0
  -22.8929   -5.4977  -29.8592 H   0  0  0  0  0  0
  -20.6983   -6.7332  -28.3980 H   0  0  0  0  0  0
  -20.9350   -4.9499  -30.9019 H   0  0  0  0  0  0
  -21.0946   -6.6824  -30.9147 H   0  0  0  0  0  0
  -18.6042   -5.1397  -30.2354 H   0  0  0  0  0  0
  -17.9221   -5.5601  -32.4444 H   0  0  0  0  0  0
  -18.8145   -7.0805  -32.5355 H   0  0  0  0  0  0
  -19.6278   -5.5384  -32.7043 H   0  0  0  0  0  0
  -17.5569   -7.5636  -30.2049 H   0  0  0  0  0  0
  -18.5156   -7.1107  -28.8264 H   0  0  0  0  0  0
  -19.1980   -8.1242  -30.0985 H   0  0  0  0  0  0
  -19.7033   -5.6143  -26.7590 H   0  0  0  0  0  0
  -20.6605   -3.0262  -25.9788 H   0  0  0  0  0  0
  -18.7825   -1.6495  -26.3201 H   0  0  0  0  0  0
  -20.2325   -4.8273  -24.3524 H   0  0  0  0  0  0
  -19.2469   -3.4534  -23.9476 H   0  0  0  0  0  0
  -18.8305   -7.2380  -24.9751 H   0  0  0  0  0  0
  -14.9922   -5.5924  -24.9214 H   0  0  0  0  0  0
  -16.5878   -3.6815  -24.5777 H   0  0  0  0  0  0
  -26.1196   -4.1856  -27.8352 H   0  0  0  0  0  0
  -25.0118   -2.3751  -28.9425 H   0  0  0  0  0  0
  -23.4884   -3.2305  -29.0397 H   0  0  0  0  0  0
  -24.8402   -3.7516  -30.0226 H   0  0  0  0  0  0
  -24.9768   -2.9404  -26.1967 H   0  0  0  0  0  0
  -24.5302   -4.5769  -25.7842 H   0  0  0  0  0  0
  -23.3966   -3.5567  -26.6443 H   0  0  0  0  0  0
  1  2  1  0  0  0
  1 40  1  0  0  0
  1 41  1  0  0  0
  1 42  1  0  0  0
  2  3  2  0  0  0
  2  4  1  0  0  0
  4  5  1  0  0  0
  4 43  1  0  0  0
  5  6  1  0  0  0
  5  8  1  0  0  0
  5 44  1  0  0  0
  6  7  1  0  0  0
  6 45  1  0  0  0
  6 46  1  0  0  0
  7 47  1  0  0  0
  8  9  2  0  0  0
  8 10  1  0  0  0
 10 11  1  0  0  0
 10 48  1  0  0  0
 11 12  1  0  0  0
 11 13  1  0  0  0
 11 49  1  0  0  0
 12 50  1  0  0  0
 12 51  1  0  0  0
 12 52  1  0  0  0
 13 14  2  0  0  0
 13 15  1  0  0  0
 15 16  1  0  0  0
 15 53  1  0  0  0
 16 17  1  0  0  0
 16 37  1  0  0  0
 16 54  1  0  0  0
 17 18  2  0  0  0
 17 19  1  0  0  0
 19 20  1  0  0  0
 19 55  1  0  0  0
 20 21  1  0  0  0
 20 25  1  0  0  0
 20 56  1  0  0  0
 21 22  1  0  0  0
 21 57  1  0  0  0
 21 58  1  0  0  0
 22 23  1  0  0  0
 22 24  1  0  0  0
 22 59  1  0  0  0
 23 60  1  0  0  0
 23 61  1  0  0  0
 23 62  1  0  0  0
 24 63  1  0  0  0
 24 64  1  0  0  0
 24 65  1  0  0  0
 25 26  2  0  0  0
 25 27  1  0  0  0
 27 28  1  0  0  0
 27 66  1  0  0  0
 28 29  1  0  0  0
 28 31  1  0  0  0
 28 67  1  0  0  0
 29 30  2  0  0  0
 29 68  1  0  0  0
 31 32  1  0  0  0
 31 69  1  0  0  0
 31 70  1  0  0  0
 32 36  1  0  0  0
 32 33  2  0  0  0
 33 34  1  0  0  0
 33 71  1  0  0  0
 34 35  2  0  0  0
 35 36  1  0  0  0
 35 72  1  0  0  0
 36 73  1  0  0  0
 37 38  1  0  0  0
 37 39  1  0  0  0
 37 74  1  0  0  0
 38 75  1  0  0  0
 38 76  1  0  0  0
 38 77  1  0  0  0
 39 78  1  0  0  0
 39 79  1  0  0  0
 39 80  1  0  0  0
M  END
$$$$
