
                    3D
 Schrodinger Suite 2019-4.
 30 31  0  0  1  0            999 V2000
  -22.6914   -2.2632  -31.9506 O   0  0  0  0  0  0
  -22.9977   -3.4488  -32.0229 N   0  3  0  0  0  0
  -24.1275   -3.8403  -32.2704 O   0  5  0  0  0  0
  -21.9110   -4.4382  -31.8985 C   0  0  0  0  0  0
  -20.8693   -4.3437  -32.8312 C   0  0  0  0  0  0
  -19.7787   -5.2190  -32.8070 C   0  0  0  0  0  0
  -18.6831   -5.1293  -33.8701 C   0  0  0  0  0  0
  -17.7728   -4.2420  -33.4724 F   0  0  0  0  0  0
  -18.0789   -6.3036  -34.0640 F   0  0  0  0  0  0
  -19.1802   -4.7408  -35.0453 F   0  0  0  0  0  0
  -19.7218   -6.1918  -31.8082 C   0  0  0  0  0  0
  -20.7487   -6.3037  -30.8745 C   0  0  0  0  0  0
  -21.8653   -5.4539  -30.9101 C   0  0  0  0  0  0
  -23.1828   -5.7959  -29.6987 S   0  0  0  0  0  0
  -24.4759   -5.6297  -30.3546 O   0  0  0  0  0  0
  -22.8750   -7.0849  -29.0706 O   0  0  0  0  0  0
  -23.1581   -4.5898  -28.3741 C   0  0  0  0  0  0
  -22.7829   -3.2638  -28.5979 C   0  0  0  0  0  0
  -22.8769   -2.3407  -27.5625 C   0  0  0  0  0  0
  -23.3238   -2.7348  -26.3074 C   0  0  0  0  0  0
  -23.4540   -1.5679  -25.0403 Cl  0  0  0  0  0  0
  -23.6709   -4.0618  -26.0712 C   0  0  0  0  0  0
  -23.5956   -4.9888  -27.1065 C   0  0  0  0  0  0
  -20.9224   -3.5797  -33.5946 H   0  0  0  0  0  0
  -18.8823   -6.8744  -31.7574 H   0  0  0  0  0  0
  -20.6726   -7.0838  -30.1319 H   0  0  0  0  0  0
  -22.4249   -2.9289  -29.5555 H   0  0  0  0  0  0
  -22.5793   -1.3175  -27.7361 H   0  0  0  0  0  0
  -24.0146   -4.3647  -25.0938 H   0  0  0  0  0  0
  -23.9011   -6.0077  -26.9251 H   0  0  0  0  0  0
  1  2  2  0  0  0
  2  3  1  0  0  0
  2  4  1  0  0  0
  4 13  1  0  0  0
  4  5  2  0  0  0
  5  6  1  0  0  0
  5 24  1  0  0  0
  6  7  1  0  0  0
  6 11  2  0  0  0
  7  8  1  0  0  0
  7  9  1  0  0  0
  7 10  1  0  0  0
 11 12  1  0  0  0
 11 25  1  0  0  0
 12 13  2  0  0  0
 12 26  1  0  0  0
 13 14  1  0  0  0
 14 15  2  0  0  0
 14 16  2  0  0  0
 14 17  1  0  0  0
 17 23  1  0  0  0
 17 18  2  0  0  0
 18 19  1  0  0  0
 18 27  1  0  0  0
 19 20  2  0  0  0
 19 28  1  0  0  0
 20 21  1  0  0  0
 20 22  1  0  0  0
 22 23  2  0  0  0
 22 29  1  0  0  0
 23 30  1  0  0  0
M  CHG  2   2   1   3  -1
M  END
$$$$
