
                    3D
 Schrodinger Suite 2019-4.
 70 73  0  0  1  0            999 V2000
  -19.1571   -5.5807  -29.6570 O   0  0  0  0  0  0
  -20.0491   -5.7876  -30.4856 C   0  0  0  0  0  0
  -21.2283   -5.1456  -30.4831 N   0  0  0  0  0  0
  -21.6693   -4.1473  -29.5065 C   0  0  1  0  0  0
  -23.0353   -3.5485  -29.9171 C   0  0  0  0  0  0
  -23.1371   -2.6989  -31.1668 C   0  0  0  0  0  0
  -23.2847   -2.0606  -29.8055 C   0  0  0  0  0  0
  -21.7091   -4.7253  -28.0742 C   0  0  0  0  0  0
  -22.4180   -5.7023  -27.8202 O   0  0  0  0  0  0
  -20.9421   -4.1022  -27.1641 N   0  0  0  0  0  0
  -20.8725   -4.4285  -25.7299 C   0  0  1  0  0  0
  -19.4093   -4.3116  -25.2169 C   0  0  0  0  0  0
  -18.4832   -5.4334  -25.7749 C   0  0  2  0  0  0
  -18.7598   -6.8312  -25.2304 C   0  0  0  0  0  0
  -17.3951   -7.4993  -25.2131 C   0  0  0  0  0  0
  -16.4827   -6.3690  -25.1180 N   0  0  0  0  0  0
  -17.0058   -5.1761  -25.4483 C   0  0  0  0  0  0
  -16.4145   -4.1034  -25.5185 O   0  0  0  0  0  0
  -21.8549   -3.4837  -25.0251 C   0  0  0  0  0  0
  -22.4002   -2.5030  -25.5421 O   0  0  0  0  0  0
  -22.2238   -3.8478  -23.5442 C   0  0  0  0  0  0
  -21.3547   -4.1112  -22.7180 O   0  0  0  0  0  0
  -23.5528   -3.8162  -23.3236 N   0  0  0  0  0  0
  -24.1914   -4.1900  -22.0590 C   0  0  0  0  0  0
  -24.2489   -5.6897  -21.7555 C   0  0  0  0  0  0
  -24.4635   -6.0979  -20.4352 C   0  0  0  0  0  0
  -24.5210   -7.4540  -20.1200 C   0  0  0  0  0  0
  -24.3573   -8.4037  -21.1260 C   0  0  0  0  0  0
  -24.1278   -8.0096  -22.4426 C   0  0  0  0  0  0
  -24.0725   -6.6544  -22.7568 C   0  0  0  0  0  0
  -19.9379   -6.7370  -31.5656 C   0  0  0  0  0  0
  -18.8585   -7.5293  -31.7262 C   0  0  0  0  0  0
  -18.6731   -8.5344  -32.7918 C   0  0  0  0  0  0
  -17.3780   -8.9958  -33.0506 C   0  0  0  0  0  0
  -17.1563   -9.9424  -34.0475 C   0  0  0  0  0  0
  -18.2272  -10.4215  -34.7963 C   0  0  0  0  0  0
  -19.5218   -9.9677  -34.5520 C   0  0  0  0  0  0
  -19.7455   -9.0271  -33.5494 C   0  0  0  0  0  0
  -21.9163   -5.3957  -31.1756 H   0  0  0  0  0  0
  -20.9264   -3.3472  -29.5442 H   0  0  0  0  0  0
  -23.8720   -4.2227  -29.7164 H   0  0  0  0  0  0
  -24.0226   -2.7932  -31.7975 H   0  0  0  0  0  0
  -22.2343   -2.4879  -31.7417 H   0  0  0  0  0  0
  -22.4869   -1.4029  -29.4564 H   0  0  0  0  0  0
  -24.2721   -1.7055  -29.5044 H   0  0  0  0  0  0
  -20.4131   -3.2901  -27.4526 H   0  0  0  0  0  0
  -21.2139   -5.4543  -25.5644 H   0  0  0  0  0  0
  -19.3598   -4.3466  -24.1284 H   0  0  0  0  0  0
  -19.0141   -3.3294  -25.4913 H   0  0  0  0  0  0
  -18.5464   -5.4353  -26.8648 H   0  0  0  0  0  0
  -19.4907   -7.3914  -25.8151 H   0  0  0  0  0  0
  -19.1453   -6.7748  -24.2106 H   0  0  0  0  0  0
  -17.1977   -8.0605  -26.1276 H   0  0  0  0  0  0
  -17.2806   -8.1719  -24.3623 H   0  0  0  0  0  0
  -15.4830   -6.5029  -24.9956 H   0  0  0  0  0  0
  -24.1781   -3.6368  -24.1059 H   0  0  0  0  0  0
  -25.2140   -3.8087  -22.0624 H   0  0  0  0  0  0
  -23.6868   -3.6763  -21.2373 H   0  0  0  0  0  0
  -24.5913   -5.3635  -19.6523 H   0  0  0  0  0  0
  -24.6916   -7.7690  -19.1012 H   0  0  0  0  0  0
  -24.3988   -9.4551  -20.8821 H   0  0  0  0  0  0
  -23.9945   -8.7517  -23.2158 H   0  0  0  0  0  0
  -23.8993   -6.3642  -23.7830 H   0  0  0  0  0  0
  -20.7715   -6.7886  -32.2523 H   0  0  0  0  0  0
  -18.0430   -7.4545  -31.0168 H   0  0  0  0  0  0
  -16.5376   -8.6245  -32.4808 H   0  0  0  0  0  0
  -16.1563  -10.3010  -34.2441 H   0  0  0  0  0  0
  -18.0549  -11.1479  -35.5765 H   0  0  0  0  0  0
  -20.3470  -10.3473  -35.1358 H   0  0  0  0  0  0
  -20.7572   -8.6982  -33.3625 H   0  0  0  0  0  0
  1  2  2  0  0  0
  2  3  1  0  0  0
  2 31  1  0  0  0
  3  4  1  0  0  0
  3 39  1  0  0  0
  4  5  1  0  0  0
  4  8  1  0  0  0
  4 40  1  0  0  0
  5  7  1  0  0  0
  5  6  1  0  0  0
  5 41  1  0  0  0
  6  7  1  0  0  0
  6 42  1  0  0  0
  6 43  1  0  0  0
  7 44  1  0  0  0
  7 45  1  0  0  0
  8  9  2  0  0  0
  8 10  1  0  0  0
 10 11  1  0  0  0
 10 46  1  0  0  0
 11 12  1  0  0  0
 11 19  1  0  0  0
 11 47  1  0  0  0
 12 13  1  0  0  0
 12 48  1  0  0  0
 12 49  1  0  0  0
 13 17  1  0  0  0
 13 14  1  0  0  0
 13 50  1  0  0  0
 14 15  1  0  0  0
 14 51  1  0  0  0
 14 52  1  0  0  0
 15 16  1  0  0  0
 15 53  1  0  0  0
 15 54  1  0  0  0
 16 17  1  0  0  0
 16 55  1  0  0  0
 17 18  2  0  0  0
 19 20  2  0  0  0
 19 21  1  0  0  0
 21 22  2  0  0  0
 21 23  1  0  0  0
 23 24  1  0  0  0
 23 56  1  0  0  0
 24 25  1  0  0  0
 24 57  1  0  0  0
 24 58  1  0  0  0
 25 30  1  0  0  0
 25 26  2  0  0  0
 26 27  1  0  0  0
 26 59  1  0  0  0
 27 28  2  0  0  0
 27 60  1  0  0  0
 28 29  1  0  0  0
 28 61  1  0  0  0
 29 30  2  0  0  0
 29 62  1  0  0  0
 30 63  1  0  0  0
 31 32  2  0  0  0
 31 64  1  0  0  0
 32 33  1  0  0  0
 32 65  1  0  0  0
 33 38  1  0  0  0
 33 34  2  0  0  0
 34 35  1  0  0  0
 34 66  1  0  0  0
 35 36  2  0  0  0
 35 67  1  0  0  0
 36 37  1  0  0  0
 36 68  1  0  0  0
 37 38  2  0  0  0
 37 69  1  0  0  0
 38 70  1  0  0  0
M  END
$$$$
