
                    3D
 Schrodinger Suite 2019-4.
 83 83  0  0  1  0            999 V2000
  -17.5891   -6.9349  -26.0151 C   0  0  0  0  0  0
  -17.5459   -5.3909  -26.0123 C   0  0  0  0  0  0
  -16.2660   -4.8691  -25.3296 C   0  0  0  0  0  0
  -18.7998   -4.7597  -25.3602 C   0  0  0  0  0  0
  -20.1566   -5.1830  -25.9700 C   0  0  2  0  0  0
  -20.2395   -4.7825  -27.3724 N   0  0  0  0  0  0
  -21.1864   -5.2103  -28.2266 C   0  0  0  0  0  0
  -22.1150   -5.9449  -27.8950 O   0  0  0  0  0  0
  -21.0069   -4.7919  -29.7066 C   0  0  1  0  0  0
  -20.3656   -5.8328  -30.5170 N   0  0  0  0  0  0
  -19.1417   -6.3457  -30.2973 C   0  0  0  0  0  0
  -18.3976   -5.9438  -29.4029 O   0  0  0  0  0  0
  -18.6456   -7.4639  -31.2487 C   0  0  2  0  0  0
  -17.2079   -7.9547  -30.9785 C   0  0  0  0  0  0
  -18.7579   -7.1156  -32.6747 N   0  0  0  0  0  0
  -19.8271   -7.5393  -33.4472 C   0  0  0  0  0  0
  -20.7553   -8.2564  -33.0743 O   0  0  0  0  0  0
  -19.6903   -7.0383  -34.6894 O   0  0  0  0  0  0
  -20.5140   -7.4671  -35.7764 C   0  0  0  0  0  0
  -19.9071   -8.6790  -36.4670 C   0  0  0  0  0  0
  -18.5251   -8.7564  -36.6695 C   0  0  0  0  0  0
  -17.9827   -9.8577  -37.3259 C   0  0  0  0  0  0
  -18.8247  -10.8631  -37.7972 C   0  0  0  0  0  0
  -20.2032  -10.7871  -37.6044 C   0  0  0  0  0  0
  -20.7466   -9.6958  -36.9289 C   0  0  0  0  0  0
  -22.3417   -4.2957  -30.3516 C   0  0  0  0  0  0
  -23.0361   -3.1751  -29.5454 C   0  0  0  0  0  0
  -23.3543   -5.4119  -30.6853 C   0  0  0  0  0  0
  -21.3079   -4.5905  -25.1513 C   0  0  0  0  0  0
  -21.6563   -3.4223  -25.3331 O   0  0  0  0  0  0
  -21.8603   -5.4245  -24.2525 N   0  0  0  0  0  0
  -22.9932   -5.1286  -23.3575 C   0  0  1  0  0  0
  -23.3381   -6.3971  -22.5384 C   0  0  0  0  0  0
  -23.9093   -7.5492  -23.3990 C   0  0  0  0  0  0
  -24.4703   -8.6918  -22.5494 C   0  0  0  0  0  0
  -25.5373   -8.4257  -21.7919 N   0  0  0  0  0  0
  -23.9523   -9.8042  -22.5701 O   0  0  0  0  0  0
  -22.6822   -3.9567  -22.4182 C   0  0  0  0  0  0
  -21.5351   -3.5943  -22.1343 O   0  0  0  0  0  0
  -23.8762   -3.0929  -22.0089 C   0  0  0  0  0  0
  -23.5494   -2.3675  -20.9373 F   0  0  0  0  0  0
  -24.1636   -2.2866  -23.0263 F   0  0  0  0  0  0
  -24.9397   -3.8493  -21.7356 F   0  0  0  0  0  0
  -17.8702   -7.3037  -27.0057 H   0  0  0  0  0  0
  -16.6243   -7.3863  -25.7695 H   0  0  0  0  0  0
  -18.3076   -7.3298  -25.2955 H   0  0  0  0  0  0
  -17.4984   -5.0706  -27.0522 H   0  0  0  0  0  0
  -15.9135   -3.9560  -25.8108 H   0  0  0  0  0  0
  -16.4377   -4.6456  -24.2782 H   0  0  0  0  0  0
  -15.4465   -5.5870  -25.3675 H   0  0  0  0  0  0
  -18.7105   -3.6715  -25.3997 H   0  0  0  0  0  0
  -18.7990   -5.0139  -24.2993 H   0  0  0  0  0  0
  -20.2406   -6.2700  -25.9323 H   0  0  0  0  0  0
  -19.4847   -4.2087  -27.7101 H   0  0  0  0  0  0
  -20.3296   -3.9394  -29.7151 H   0  0  0  0  0  0
  -20.9378   -6.2368  -31.2427 H   0  0  0  0  0  0
  -19.2633   -8.3337  -31.0110 H   0  0  0  0  0  0
  -16.9479   -8.7935  -31.6264 H   0  0  0  0  0  0
  -16.4762   -7.1671  -31.1444 H   0  0  0  0  0  0
  -17.0936   -8.2854  -29.9468 H   0  0  0  0  0  0
  -18.0486   -6.5258  -33.0871 H   0  0  0  0  0  0
  -20.5589   -6.6783  -36.5285 H   0  0  0  0  0  0
  -21.5438   -7.6589  -35.4549 H   0  0  0  0  0  0
  -17.8784   -7.9571  -36.3302 H   0  0  0  0  0  0
  -16.9151   -9.9222  -37.4830 H   0  0  0  0  0  0
  -18.4026  -11.7148  -38.3099 H   0  0  0  0  0  0
  -20.8503  -11.5740  -37.9687 H   0  0  0  0  0  0
  -21.8166   -9.6323  -36.7814 H   0  0  0  0  0  0
  -22.0665   -3.8453  -31.3053 H   0  0  0  0  0  0
  -23.8819   -2.7653  -30.0974 H   0  0  0  0  0  0
  -23.4256   -3.5352  -28.5922 H   0  0  0  0  0  0
  -22.3607   -2.3432  -29.3367 H   0  0  0  0  0  0
  -24.1955   -5.0098  -31.2504 H   0  0  0  0  0  0
  -22.9117   -6.1982  -31.2974 H   0  0  0  0  0  0
  -23.7647   -5.8765  -29.7919 H   0  0  0  0  0  0
  -21.5393   -6.3834  -24.2420 H   0  0  0  0  0  0
  -23.8564   -4.8846  -23.9849 H   0  0  0  0  0  0
  -24.0744   -6.1533  -21.7677 H   0  0  0  0  0  0
  -22.4491   -6.7425  -22.0037 H   0  0  0  0  0  0
  -23.1304   -7.9446  -24.0587 H   0  0  0  0  0  0
  -24.7151   -7.1861  -24.0426 H   0  0  0  0  0  0
  -25.9304   -9.1593  -21.2218 H   0  0  0  0  0  0
  -25.9658   -7.5138  -21.7959 H   0  0  0  0  0  0
  1  2  1  0  0  0
  1 44  1  0  0  0
  1 45  1  0  0  0
  1 46  1  0  0  0
  2  3  1  0  0  0
  2  4  1  0  0  0
  2 47  1  0  0  0
  3 48  1  0  0  0
  3 49  1  0  0  0
  3 50  1  0  0  0
  4  5  1  0  0  0
  4 51  1  0  0  0
  4 52  1  0  0  0
  5  6  1  0  0  0
  5 29  1  0  0  0
  5 53  1  0  0  0
  6  7  1  0  0  0
  6 54  1  0  0  0
  7  8  2  0  0  0
  7  9  1  0  0  0
  9 10  1  0  0  0
  9 26  1  0  0  0
  9 55  1  0  0  0
 10 11  1  0  0  0
 10 56  1  0  0  0
 11 12  2  0  0  0
 11 13  1  0  0  0
 13 14  1  0  0  0
 13 15  1  0  0  0
 13 57  1  0  0  0
 14 58  1  0  0  0
 14 59  1  0  0  0
 14 60  1  0  0  0
 15 16  1  0  0  0
 15 61  1  0  0  0
 16 17  2  0  0  0
 16 18  1  0  0  0
 18 19  1  0  0  0
 19 20  1  0  0  0
 19 62  1  0  0  0
 19 63  1  0  0  0
 20 25  1  0  0  0
 20 21  2  0  0  0
 21 22  1  0  0  0
 21 64  1  0  0  0
 22 23  2  0  0  0
 22 65  1  0  0  0
 23 24  1  0  0  0
 23 66  1  0  0  0
 24 25  2  0  0  0
 24 67  1  0  0  0
 25 68  1  0  0  0
 26 27  1  0  0  0
 26 28  1  0  0  0
 26 69  1  0  0  0
 27 70  1  0  0  0
 27 71  1  0  0  0
 27 72  1  0  0  0
 28 73  1  0  0  0
 28 74  1  0  0  0
 28 75  1  0  0  0
 29 30  2  0  0  0
 29 31  1  0  0  0
 31 32  1  0  0  0
 31 76  1  0  0  0
 32 33  1  0  0  0
 32 38  1  0  0  0
 32 77  1  0  0  0
 33 34  1  0  0  0
 33 78  1  0  0  0
 33 79  1  0  0  0
 34 35  1  0  0  0
 34 80  1  0  0  0
 34 81  1  0  0  0
 35 36  1  0  0  0
 35 37  2  0  0  0
 36 82  1  0  0  0
 36 83  1  0  0  0
 38 39  2  0  0  0
 38 40  1  0  0  0
 40 41  1  0  0  0
 40 42  1  0  0  0
 40 43  1  0  0  0
M  END
$$$$
