
                    3D
 Schrodinger Suite 2019-4.
 75 75  0  0  1  0            999 V2000
  -18.6711   -2.9188  -24.2590 C   0  0  0  0  0  0
  -20.0457   -3.5435  -24.2878 C   0  0  0  0  0  0
  -20.0245   -4.8873  -23.6081 C   0  0  0  0  0  0
  -20.5319   -3.6900  -25.7142 C   0  0  0  0  0  0
  -21.9757   -4.1976  -25.8553 C   0  0  1  0  0  0
  -23.0566   -3.6113  -24.9524 C   0  0  0  0  0  0
  -23.1313   -2.4361  -24.6179 O   0  0  0  0  0  0
  -22.3153   -4.0034  -27.2393 N   0  0  0  0  0  0
  -22.0456   -4.9073  -28.1806 C   0  0  0  0  0  0
  -21.8483   -6.1004  -27.9416 O   0  0  0  0  0  0
  -21.9532   -4.3345  -29.5914 C   0  0  2  0  0  0
  -23.3779   -3.9108  -29.9989 C   0  0  0  0  0  0
  -23.5308   -3.2952  -31.3941 C   0  0  0  0  0  0
  -22.4315   -2.2829  -31.7412 C   0  0  0  0  0  0
  -24.9300   -2.6741  -31.4909 C   0  0  0  0  0  0
  -21.4289   -5.3338  -30.5125 N   0  0  0  0  0  0
  -20.1482   -5.7242  -30.5976 C   0  0  0  0  0  0
  -19.2275   -5.2095  -29.9610 O   0  0  0  0  0  0
  -19.8990   -6.9134  -31.5199 C   0  0  2  0  0  0
  -19.2322   -8.0678  -30.7456 C   0  0  0  0  0  0
  -19.0376   -9.3530  -31.5846 C   0  0  0  0  0  0
  -20.3636   -9.9254  -32.1203 C   0  0  0  0  0  0
  -18.2854  -10.4169  -30.7739 C   0  0  0  0  0  0
  -19.0282   -6.5043  -32.6091 N   0  0  0  0  0  0
  -19.4812   -6.2448  -33.8815 C   0  0  0  0  0  0
  -20.6579   -6.2358  -34.2323 O   0  0  0  0  0  0
  -18.4348   -6.0687  -34.6989 O   0  0  0  0  0  0
  -18.6392   -6.0645  -36.1057 C   0  0  0  0  0  0
  -18.8109   -7.4699  -36.6581 C   0  0  0  0  0  0
  -17.6847   -8.1853  -37.1092 C   0  0  0  0  0  0
  -17.8243   -9.5049  -37.5804 C   0  0  0  0  0  0
  -19.0940  -10.1134  -37.6065 C   0  0  0  0  0  0
  -20.2256   -9.3968  -37.1740 C   0  0  0  0  0  0
  -20.0844   -8.0777  -36.7052 C   0  0  0  0  0  0
  -18.6782   -1.9961  -24.8316 H   0  0  0  0  0  0
  -18.4268   -2.6738  -23.2388 H   0  0  0  0  0  0
  -17.9072   -3.5854  -24.6602 H   0  0  0  0  0  0
  -20.7068   -2.8861  -23.7289 H   0  0  0  0  0  0
  -21.0143   -5.3325  -23.5588 H   0  0  0  0  0  0
  -19.3455   -5.5900  -24.0925 H   0  0  0  0  0  0
  -19.6900   -4.7248  -22.5980 H   0  0  0  0  0  0
  -19.8636   -4.3720  -26.2445 H   0  0  0  0  0  0
  -20.4263   -2.7383  -26.2321 H   0  0  0  0  0  0
  -21.9714   -5.2653  -25.6287 H   0  0  0  0  0  0
  -23.7879   -4.3531  -24.6375 H   0  0  0  0  0  0
  -22.5275   -3.0584  -27.5271 H   0  0  0  0  0  0
  -21.2855   -3.4714  -29.5630 H   0  0  0  0  0  0
  -23.7424   -3.1769  -29.2789 H   0  0  0  0  0  0
  -24.0587   -4.7605  -29.9166 H   0  0  0  0  0  0
  -23.4605   -4.0921  -32.1308 H   0  0  0  0  0  0
  -22.5550   -1.9372  -32.7607 H   0  0  0  0  0  0
  -22.4364   -1.4215  -31.0740 H   0  0  0  0  0  0
  -21.4462   -2.7415  -31.7132 H   0  0  0  0  0  0
  -25.1189   -2.2491  -32.4665 H   0  0  0  0  0  0
  -25.7059   -3.4153  -31.2997 H   0  0  0  0  0  0
  -25.0575   -1.8687  -30.7673 H   0  0  0  0  0  0
  -22.1145   -5.8522  -31.0453 H   0  0  0  0  0  0
  -20.8609   -7.2532  -31.9040 H   0  0  0  0  0  0
  -19.8340   -8.3089  -29.8674 H   0  0  0  0  0  0
  -18.2627   -7.7409  -30.3634 H   0  0  0  0  0  0
  -18.4108   -9.1135  -32.4443 H   0  0  0  0  0  0
  -20.1989  -10.8738  -32.6318 H   0  0  0  0  0  0
  -21.0739  -10.1049  -31.3125 H   0  0  0  0  0  0
  -20.8355   -9.2592  -32.8427 H   0  0  0  0  0  0
  -18.0897  -11.3060  -31.3734 H   0  0  0  0  0  0
  -17.3233  -10.0385  -30.4266 H   0  0  0  0  0  0
  -18.8567  -10.7256  -29.8977 H   0  0  0  0  0  0
  -18.0284   -6.4543  -32.4544 H   0  0  0  0  0  0
  -17.7618   -5.6147  -36.5695 H   0  0  0  0  0  0
  -19.4926   -5.4410  -36.3779 H   0  0  0  0  0  0
  -16.7114   -7.7214  -37.0974 H   0  0  0  0  0  0
  -16.9573  -10.0489  -37.9251 H   0  0  0  0  0  0
  -19.2020  -11.1252  -37.9681 H   0  0  0  0  0  0
  -21.2027   -9.8553  -37.2014 H   0  0  0  0  0  0
  -20.9599   -7.5381  -36.3799 H   0  0  0  0  0  0
  1  2  1  0  0  0
  1 35  1  0  0  0
  1 36  1  0  0  0
  1 37  1  0  0  0
  2  3  1  0  0  0
  2  4  1  0  0  0
  2 38  1  0  0  0
  3 39  1  0  0  0
  3 40  1  0  0  0
  3 41  1  0  0  0
  4  5  1  0  0  0
  4 42  1  0  0  0
  4 43  1  0  0  0
  5  6  1  0  0  0
  5  8  1  0  0  0
  5 44  1  0  0  0
  6  7  2  0  0  0
  6 45  1  0  0  0
  8  9  1  0  0  0
  8 46  1  0  0  0
  9 10  2  0  0  0
  9 11  1  0  0  0
 11 12  1  0  0  0
 11 16  1  0  0  0
 11 47  1  0  0  0
 12 13  1  0  0  0
 12 48  1  0  0  0
 12 49  1  0  0  0
 13 14  1  0  0  0
 13 15  1  0  0  0
 13 50  1  0  0  0
 14 51  1  0  0  0
 14 52  1  0  0  0
 14 53  1  0  0  0
 15 54  1  0  0  0
 15 55  1  0  0  0
 15 56  1  0  0  0
 16 17  1  0  0  0
 16 57  1  0  0  0
 17 18  2  0  0  0
 17 19  1  0  0  0
 19 20  1  0  0  0
 19 24  1  0  0  0
 19 58  1  0  0  0
 20 21  1  0  0  0
 20 59  1  0  0  0
 20 60  1  0  0  0
 21 22  1  0  0  0
 21 23  1  0  0  0
 21 61  1  0  0  0
 22 62  1  0  0  0
 22 63  1  0  0  0
 22 64  1  0  0  0
 23 65  1  0  0  0
 23 66  1  0  0  0
 23 67  1  0  0  0
 24 25  1  0  0  0
 24 68  1  0  0  0
 25 26  2  0  0  0
 25 27  1  0  0  0
 27 28  1  0  0  0
 28 29  1  0  0  0
 28 69  1  0  0  0
 28 70  1  0  0  0
 29 34  1  0  0  0
 29 30  2  0  0  0
 30 31  1  0  0  0
 30 71  1  0  0  0
 31 32  2  0  0  0
 31 72  1  0  0  0
 32 33  1  0  0  0
 32 73  1  0  0  0
 33 34  2  0  0  0
 33 74  1  0  0  0
 34 75  1  0  0  0
M  END
$$$$
