
                    3D
 Schrodinger Suite 2019-4.
 74 78  0  0  1  0            999 V2000
  -21.2220  -12.3469  -34.3029 C   0  0  0  0  0  0
  -19.8709  -11.9115  -34.2513 O   0  0  0  0  0  0
  -19.5647  -10.8397  -33.4410 C   0  0  0  0  0  0
  -18.1975  -10.5251  -33.2926 C   0  0  0  0  0  0
  -17.7938   -9.4638  -32.4644 C   0  0  0  0  0  0
  -18.7706   -8.7144  -31.7923 C   0  0  0  0  0  0
  -18.6863   -7.6495  -30.9267 N   0  0  0  0  0  0
  -19.9388   -7.2033  -30.5528 C   0  0  0  0  0  0
  -20.8775   -8.0080  -31.1495 C   0  0  0  0  0  0
  -20.1613   -8.9754  -31.9338 C   0  0  0  0  0  0
  -20.5352  -10.0546  -32.7661 C   0  0  0  0  0  0
  -20.0202   -6.0385  -29.6547 C   0  0  0  0  0  0
  -19.0094   -5.5366  -29.1655 O   0  0  0  0  0  0
  -21.2509   -5.5684  -29.4228 N   0  0  0  0  0  0
  -21.5642   -4.4431  -28.5423 C   0  0  1  0  0  0
  -23.0205   -4.0218  -28.8007 C   0  0  0  0  0  0
  -23.2874   -3.5664  -30.2530 C   0  0  0  0  0  0
  -23.1146   -2.0537  -30.4410 C   0  0  0  0  0  0
  -24.6730   -4.0175  -30.6983 C   0  0  0  0  0  0
  -21.4313   -4.9027  -27.0856 C   0  0  0  0  0  0
  -21.7327   -6.0593  -26.7842 O   0  0  0  0  0  0
  -20.9904   -4.0101  -26.1837 N   0  0  0  0  0  0
  -20.6996   -4.3517  -24.7857 C   0  0  1  0  0  0
  -19.1737   -4.2105  -24.5538 C   0  0  0  0  0  0
  -18.3480   -5.2468  -25.3603 C   0  0  2  0  0  0
  -18.6648   -6.7132  -25.0215 C   0  0  0  0  0  0
  -17.3222   -7.4526  -25.0164 C   0  0  0  0  0  0
  -16.3385   -6.3983  -24.9233 N   0  0  0  0  0  0
  -16.8452   -5.1864  -25.1244 C   0  0  0  0  0  0
  -16.1895   -4.1538  -25.1663 O   0  0  0  0  0  0
  -21.5728   -3.5309  -23.8068 C   0  0  0  0  0  0
  -21.1140   -2.9714  -22.8121 O   0  0  0  0  0  0
  -23.0362   -3.4289  -24.0961 C   0  0  0  0  0  0
  -23.8295   -2.3590  -23.9145 N   0  0  0  0  0  0
  -25.1159   -2.6406  -24.3868 C   0  0  0  0  0  0
  -26.2301   -1.7745  -24.4681 C   0  0  0  0  0  0
  -27.4364   -2.2131  -25.0521 C   0  0  0  0  0  0
  -27.5920   -3.5206  -25.5241 C   0  0  0  0  0  0
  -26.5169   -4.4088  -25.4276 C   0  0  0  0  0  0
  -25.3023   -3.9639  -24.8826 C   0  0  0  0  0  0
  -23.8352   -4.8773  -24.7123 S   0  0  0  0  0  0
  -21.2871  -13.2410  -34.9228 H   0  0  0  0  0  0
  -21.5963  -12.6068  -33.3115 H   0  0  0  0  0  0
  -21.8711  -11.5926  -34.7471 H   0  0  0  0  0  0
  -17.4527  -11.1121  -33.8100 H   0  0  0  0  0  0
  -16.7457   -9.2314  -32.3437 H   0  0  0  0  0  0
  -17.8365   -7.1772  -30.6424 H   0  0  0  0  0  0
  -21.9506   -7.9376  -31.0702 H   0  0  0  0  0  0
  -21.5904  -10.2556  -32.8706 H   0  0  0  0  0  0
  -22.0341   -6.0538  -29.8387 H   0  0  0  0  0  0
  -20.8923   -3.6095  -28.7416 H   0  0  0  0  0  0
  -23.3113   -3.2342  -28.1058 H   0  0  0  0  0  0
  -23.6709   -4.8648  -28.5581 H   0  0  0  0  0  0
  -22.5854   -4.0456  -30.9340 H   0  0  0  0  0  0
  -23.2592   -1.7720  -31.4837 H   0  0  0  0  0  0
  -23.8340   -1.4920  -29.8481 H   0  0  0  0  0  0
  -22.1192   -1.7267  -30.1492 H   0  0  0  0  0  0
  -24.8952   -3.6278  -31.6902 H   0  0  0  0  0  0
  -24.7398   -5.1015  -30.7624 H   0  0  0  0  0  0
  -25.4292   -3.6847  -29.9922 H   0  0  0  0  0  0
  -20.7763   -3.0713  -26.4914 H   0  0  0  0  0  0
  -20.9510   -5.3916  -24.5821 H   0  0  0  0  0  0
  -18.9544   -4.3281  -23.4944 H   0  0  0  0  0  0
  -18.8471   -3.2034  -24.8161 H   0  0  0  0  0  0
  -18.4912   -5.0861  -26.4294 H   0  0  0  0  0  0
  -19.3680   -7.1584  -25.7265 H   0  0  0  0  0  0
  -19.1109   -6.7833  -24.0317 H   0  0  0  0  0  0
  -17.1667   -8.0030  -25.9458 H   0  0  0  0  0  0
  -17.2395   -8.1483  -24.1807 H   0  0  0  0  0  0
  -15.3496   -6.5857  -24.8128 H   0  0  0  0  0  0
  -26.1649   -0.7619  -24.1097 H   0  0  0  0  0  0
  -28.2887   -1.5686  -25.1101 H   0  0  0  0  0  0
  -28.5323   -3.8372  -25.9519 H   0  0  0  0  0  0
  -26.6142   -5.4226  -25.7881 H   0  0  0  0  0  0
  1  2  1  0  0  0
  1 42  1  0  0  0
  1 43  1  0  0  0
  1 44  1  0  0  0
  2  3  1  0  0  0
  3 11  1  0  0  0
  3  4  2  0  0  0
  4  5  1  0  0  0
  4 45  1  0  0  0
  5  6  2  0  0  0
  5 46  1  0  0  0
  6 10  1  0  0  0
  6  7  1  0  0  0
  7  8  1  0  0  0
  7 47  1  0  0  0
  8  9  2  0  0  0
  8 12  1  0  0  0
  9 10  1  0  0  0
  9 48  1  0  0  0
 10 11  2  0  0  0
 11 49  1  0  0  0
 12 13  2  0  0  0
 12 14  1  0  0  0
 14 15  1  0  0  0
 14 50  1  0  0  0
 15 16  1  0  0  0
 15 20  1  0  0  0
 15 51  1  0  0  0
 16 17  1  0  0  0
 16 52  1  0  0  0
 16 53  1  0  0  0
 17 18  1  0  0  0
 17 19  1  0  0  0
 17 54  1  0  0  0
 18 55  1  0  0  0
 18 56  1  0  0  0
 18 57  1  0  0  0
 19 58  1  0  0  0
 19 59  1  0  0  0
 19 60  1  0  0  0
 20 21  2  0  0  0
 20 22  1  0  0  0
 22 23  1  0  0  0
 22 61  1  0  0  0
 23 24  1  0  0  0
 23 31  1  0  0  0
 23 62  1  0  0  0
 24 25  1  0  0  0
 24 63  1  0  0  0
 24 64  1  0  0  0
 25 29  1  0  0  0
 25 26  1  0  0  0
 25 65  1  0  0  0
 26 27  1  0  0  0
 26 66  1  0  0  0
 26 67  1  0  0  0
 27 28  1  0  0  0
 27 68  1  0  0  0
 27 69  1  0  0  0
 28 29  1  0  0  0
 28 70  1  0  0  0
 29 30  2  0  0  0
 31 32  2  0  0  0
 31 33  1  0  0  0
 33 41  1  0  0  0
 33 34  2  0  0  0
 34 35  1  0  0  0
 35 40  2  0  0  0
 35 36  1  0  0  0
 36 37  2  0  0  0
 36 71  1  0  0  0
 37 38  1  0  0  0
 37 72  1  0  0  0
 38 39  2  0  0  0
 38 73  1  0  0  0
 39 40  1  0  0  0
 39 74  1  0  0  0
 40 41  1  0  0  0
M  END
$$$$
