
                    3D
 Schrodinger Suite 2019-4.
 80 82  0  0  1  0            999 V2000
  -26.1588   -0.0883  -24.1513 C   0  0  0  0  0  0
  -24.6879   -0.3453  -23.9280 C   0  0  0  0  0  0
  -24.3906   -1.6971  -24.1011 O   0  0  0  0  0  0
  -24.4878   -2.5882  -23.1049 C   0  0  0  0  0  0
  -25.2430   -2.5082  -22.1389 O   0  0  0  0  0  0
  -23.5135   -3.6612  -23.2967 C   0  0  0  0  0  0
  -22.4245   -3.4274  -24.0421 C   0  0  0  0  0  0
  -21.3813   -4.4136  -24.4522 C   0  0  2  0  0  0
  -20.0469   -4.1135  -23.7646 C   0  0  0  0  0  0
  -18.8920   -4.7990  -24.4484 C   0  0  0  0  0  0
  -18.8107   -6.2036  -24.4317 C   0  0  0  0  0  0
  -17.6995   -6.8509  -24.9879 C   0  0  0  0  0  0
  -16.6849   -6.0904  -25.5872 C   0  0  0  0  0  0
  -16.7960   -4.6884  -25.6671 C   0  0  0  0  0  0
  -17.9073   -4.0423  -25.1027 C   0  0  0  0  0  0
  -21.2769   -4.3136  -25.9024 N   0  0  0  0  0  0
  -22.2250   -4.7574  -26.7363 C   0  0  0  0  0  0
  -23.2235   -5.3685  -26.3510 O   0  0  0  0  0  0
  -22.0129   -4.4730  -28.2218 C   0  0  2  0  0  0
  -23.3705   -4.0656  -28.8311 C   0  0  0  0  0  0
  -23.2747   -3.6159  -30.2681 C   0  0  0  0  0  0
  -22.5646   -2.4418  -30.5705 C   0  0  0  0  0  0
  -22.3276   -2.0922  -31.9060 C   0  0  0  0  0  0
  -22.8606   -2.8816  -32.9381 C   0  0  0  0  0  0
  -22.5370   -2.6033  -34.2164 F   0  0  0  0  0  0
  -23.6683   -3.9961  -32.6407 C   0  0  0  0  0  0
  -23.8530   -4.3801  -31.3019 C   0  0  0  0  0  0
  -21.5982   -5.7223  -28.8355 N   0  0  0  0  0  0
  -20.3460   -6.1964  -28.8832 C   0  0  0  0  0  0
  -19.3571   -5.5450  -28.5406 O   0  0  0  0  0  0
  -20.2156   -7.6427  -29.3820 C   0  0  2  0  0  0
  -19.3445   -8.4246  -28.5097 N   0  0  0  0  0  0
  -18.0201   -8.6055  -28.5682 C   0  0  0  0  0  0
  -17.2853   -8.1152  -29.4223 O   0  0  0  0  0  0
  -17.4918   -9.4949  -27.4871 C   0  0  0  0  0  0
  -18.1764  -10.0523  -26.4989 N   0  0  0  0  0  0
  -17.2349  -10.7408  -25.7257 O   0  0  0  0  0  0
  -16.0114  -10.5787  -26.2931 C   0  0  0  0  0  0
  -14.8587  -11.2173  -25.5996 C   0  0  0  0  0  0
  -16.1163   -9.8337  -27.4310 C   0  0  0  0  0  0
  -19.9965   -7.8053  -30.9146 C   0  0  0  0  0  0
  -21.2590   -7.3508  -31.6612 C   0  0  0  0  0  0
  -19.6802   -9.2426  -31.3753 C   0  0  0  0  0  0
  -26.7541   -0.4563  -23.3206 H   0  0  0  0  0  0
  -26.3204    0.9806  -24.2694 H   0  0  0  0  0  0
  -26.5053   -0.5901  -25.0507 H   0  0  0  0  0  0
  -24.3462   -0.0521  -22.9497 H   0  0  0  0  0  0
  -24.1082    0.2327  -24.6445 H   0  0  0  0  0  0
  -23.7021   -4.6238  -22.8554 H   0  0  0  0  0  0
  -22.2492   -2.4546  -24.4569 H   0  0  0  0  0  0
  -21.6925   -5.4246  -24.1938 H   0  0  0  0  0  0
  -20.0821   -4.4291  -22.7244 H   0  0  0  0  0  0
  -19.8500   -3.0438  -23.7313 H   0  0  0  0  0  0
  -19.5910   -6.7918  -23.9810 H   0  0  0  0  0  0
  -17.6163   -7.9254  -24.9375 H   0  0  0  0  0  0
  -15.8263   -6.6022  -25.9817 H   0  0  0  0  0  0
  -16.0248   -4.1003  -26.1366 H   0  0  0  0  0  0
  -18.0053   -2.9699  -25.1495 H   0  0  0  0  0  0
  -20.4650   -3.8511  -26.2867 H   0  0  0  0  0  0
  -21.2667   -3.6886  -28.3607 H   0  0  0  0  0  0
  -23.8049   -3.2492  -28.2623 H   0  0  0  0  0  0
  -24.0858   -4.8858  -28.7617 H   0  0  0  0  0  0
  -22.1521   -1.8392  -29.7790 H   0  0  0  0  0  0
  -21.7070   -1.2379  -32.1305 H   0  0  0  0  0  0
  -24.0783   -4.5998  -33.4361 H   0  0  0  0  0  0
  -24.4177   -5.2719  -31.0779 H   0  0  0  0  0  0
  -22.3421   -6.3264  -29.1613 H   0  0  0  0  0  0
  -21.1809   -8.1097  -29.1781 H   0  0  0  0  0  0
  -19.8083   -8.8926  -27.7443 H   0  0  0  0  0  0
  -13.9135  -10.8118  -25.9609 H   0  0  0  0  0  0
  -14.9094  -11.0419  -24.5250 H   0  0  0  0  0  0
  -14.8551  -12.2937  -25.7700 H   0  0  0  0  0  0
  -15.3333   -9.5517  -28.1145 H   0  0  0  0  0  0
  -19.1657   -7.1684  -31.2212 H   0  0  0  0  0  0
  -21.1528   -7.5011  -32.7306 H   0  0  0  0  0  0
  -22.1255   -7.9360  -31.3576 H   0  0  0  0  0  0
  -21.4933   -6.3031  -31.4853 H   0  0  0  0  0  0
  -19.6322   -9.3052  -32.4628 H   0  0  0  0  0  0
  -18.7213   -9.6053  -31.0115 H   0  0  0  0  0  0
  -20.4493   -9.9395  -31.0390 H   0  0  0  0  0  0
  1  2  1  0  0  0
  1 44  1  0  0  0
  1 45  1  0  0  0
  1 46  1  0  0  0
  2  3  1  0  0  0
  2 47  1  0  0  0
  2 48  1  0  0  0
  3  4  1  0  0  0
  4  5  2  0  0  0
  4  6  1  0  0  0
  6  7  2  0  0  0
  6 49  1  0  0  0
  7  8  1  0  0  0
  7 50  1  0  0  0
  8  9  1  0  0  0
  8 16  1  0  0  0
  8 51  1  0  0  0
  9 10  1  0  0  0
  9 52  1  0  0  0
  9 53  1  0  0  0
 10 15  1  0  0  0
 10 11  2  0  0  0
 11 12  1  0  0  0
 11 54  1  0  0  0
 12 13  2  0  0  0
 12 55  1  0  0  0
 13 14  1  0  0  0
 13 56  1  0  0  0
 14 15  2  0  0  0
 14 57  1  0  0  0
 15 58  1  0  0  0
 16 17  1  0  0  0
 16 59  1  0  0  0
 17 18  2  0  0  0
 17 19  1  0  0  0
 19 20  1  0  0  0
 19 28  1  0  0  0
 19 60  1  0  0  0
 20 21  1  0  0  0
 20 61  1  0  0  0
 20 62  1  0  0  0
 21 27  1  0  0  0
 21 22  2  0  0  0
 22 23  1  0  0  0
 22 63  1  0  0  0
 23 24  2  0  0  0
 23 64  1  0  0  0
 24 25  1  0  0  0
 24 26  1  0  0  0
 26 27  2  0  0  0
 26 65  1  0  0  0
 27 66  1  0  0  0
 28 29  1  0  0  0
 28 67  1  0  0  0
 29 30  2  0  0  0
 29 31  1  0  0  0
 31 32  1  0  0  0
 31 41  1  0  0  0
 31 68  1  0  0  0
 32 33  1  0  0  0
 32 69  1  0  0  0
 33 34  2  0  0  0
 33 35  1  0  0  0
 35 40  1  0  0  0
 35 36  2  0  0  0
 36 37  1  0  0  0
 37 38  1  0  0  0
 38 39  1  0  0  0
 38 40  2  0  0  0
 39 70  1  0  0  0
 39 71  1  0  0  0
 39 72  1  0  0  0
 40 73  1  0  0  0
 41 42  1  0  0  0
 41 43  1  0  0  0
 41 74  1  0  0  0
 42 75  1  0  0  0
 42 76  1  0  0  0
 42 77  1  0  0  0
 43 78  1  0  0  0
 43 79  1  0  0  0
 43 80  1  0  0  0
M  END
$$$$
