
                    3D
 Schrodinger Suite 2019-4.
 74 78  0  0  1  0            999 V2000
  -22.2738  -11.5860  -33.4251 C   0  0  0  0  0  0
  -21.8627  -10.4077  -32.7488 O   0  0  0  0  0  0
  -20.5170  -10.1144  -32.7036 C   0  0  0  0  0  0
  -20.1419   -9.0078  -31.9033 C   0  0  0  0  0  0
  -20.8621   -8.0479  -31.1093 C   0  0  0  0  0  0
  -19.9329   -7.2076  -30.5490 C   0  0  0  0  0  0
  -18.6790   -7.6233  -30.9538 N   0  0  0  0  0  0
  -18.7554   -8.7016  -31.8039 C   0  0  0  0  0  0
  -17.7716   -9.4294  -32.4910 C   0  0  0  0  0  0
  -18.1626  -10.5087  -33.2993 C   0  0  0  0  0  0
  -19.5249  -10.8535  -33.4001 C   0  0  0  0  0  0
  -20.0184   -6.0376  -29.6552 C   0  0  0  0  0  0
  -19.0066   -5.5252  -29.1782 O   0  0  0  0  0  0
  -21.2497   -5.5718  -29.4135 N   0  0  0  0  0  0
  -21.5576   -4.4485  -28.5261 C   0  0  1  0  0  0
  -23.0154   -4.0216  -28.7658 C   0  0  0  0  0  0
  -23.3045   -3.5669  -30.2123 C   0  0  0  0  0  0
  -23.0490   -2.0693  -30.4262 C   0  0  0  0  0  0
  -24.7333   -3.9263  -30.5900 C   0  0  0  0  0  0
  -21.4197   -4.9149  -27.0719 C   0  0  0  0  0  0
  -21.7091   -6.0758  -26.7764 O   0  0  0  0  0  0
  -20.9892   -4.0226  -26.1653 N   0  0  0  0  0  0
  -20.6888   -4.3701  -24.7712 C   0  0  1  0  0  0
  -19.1629   -4.2206  -24.5468 C   0  0  0  0  0  0
  -18.3362   -5.2538  -25.3560 C   0  0  2  0  0  0
  -18.6477   -6.7206  -25.0143 C   0  0  0  0  0  0
  -17.3032   -7.4564  -25.0143 C   0  0  0  0  0  0
  -16.3224   -6.3992  -24.9250 N   0  0  0  0  0  0
  -16.8329   -5.1888  -25.1248 C   0  0  0  0  0  0
  -16.1800   -4.1544  -25.1696 O   0  0  0  0  0  0
  -21.5633   -3.5624  -23.7837 C   0  0  0  0  0  0
  -21.0996   -2.9843  -22.8023 O   0  0  0  0  0  0
  -23.0338   -3.4973  -24.0464 C   0  0  0  0  0  0
  -23.8501   -2.4487  -23.8448 N   0  0  0  0  0  0
  -25.1400   -2.7637  -24.2863 C   0  0  0  0  0  0
  -26.2734   -1.9204  -24.3523 C   0  0  0  0  0  0
  -27.4840   -2.3840  -24.9088 C   0  0  0  0  0  0
  -27.6231   -3.7056  -25.3500 C   0  0  0  0  0  0
  -26.5295   -4.5733  -25.2660 C   0  0  0  0  0  0
  -25.3081   -4.0947  -24.7669 C   0  0  0  0  0  0
  -23.8067   -4.9624  -24.6577 S   0  0  0  0  0  0
  -23.3555  -11.6872  -33.3393 H   0  0  0  0  0  0
  -22.0305  -11.5508  -34.4872 H   0  0  0  0  0  0
  -21.8218  -12.4745  -32.9826 H   0  0  0  0  0  0
  -21.9337   -8.0121  -30.9981 H   0  0  0  0  0  0
  -17.8354   -7.1243  -30.6980 H   0  0  0  0  0  0
  -16.7288   -9.1621  -32.3999 H   0  0  0  0  0  0
  -17.4185  -11.0784  -33.8369 H   0  0  0  0  0  0
  -19.7852  -11.6966  -34.0219 H   0  0  0  0  0  0
  -22.0354   -6.0625  -29.8188 H   0  0  0  0  0  0
  -20.8847   -3.6153  -28.7246 H   0  0  0  0  0  0
  -23.2944   -3.2310  -28.0682 H   0  0  0  0  0  0
  -23.6647   -4.8629  -28.5141 H   0  0  0  0  0  0
  -22.6659   -4.1038  -30.9125 H   0  0  0  0  0  0
  -23.2287   -1.7858  -31.4629 H   0  0  0  0  0  0
  -23.6997   -1.4590  -29.8016 H   0  0  0  0  0  0
  -22.0232   -1.8019  -30.1878 H   0  0  0  0  0  0
  -24.9503   -3.5655  -31.5931 H   0  0  0  0  0  0
  -24.8937   -5.0024  -30.5955 H   0  0  0  0  0  0
  -25.4328   -3.4940  -29.8792 H   0  0  0  0  0  0
  -20.7868   -3.0793  -26.4674 H   0  0  0  0  0  0
  -20.9320   -5.4128  -24.5718 H   0  0  0  0  0  0
  -18.9375   -4.3363  -23.4888 H   0  0  0  0  0  0
  -18.8427   -3.2120  -24.8110 H   0  0  0  0  0  0
  -18.4837   -5.0945  -26.4250 H   0  0  0  0  0  0
  -19.3526   -7.1684  -25.7159 H   0  0  0  0  0  0
  -19.0889   -6.7913  -24.0222 H   0  0  0  0  0  0
  -17.1503   -8.0061  -25.9443 H   0  0  0  0  0  0
  -17.2150   -8.1517  -24.1789 H   0  0  0  0  0  0
  -15.3326   -6.5841  -24.8173 H   0  0  0  0  0  0
  -26.2154   -0.9017  -24.0094 H   0  0  0  0  0  0
  -28.3431   -1.7437  -24.9777 H   0  0  0  0  0  0
  -28.5647   -4.0465  -25.7558 H   0  0  0  0  0  0
  -26.6148   -5.5923  -25.6151 H   0  0  0  0  0  0
  1  2  1  0  0  0
  1 42  1  0  0  0
  1 43  1  0  0  0
  1 44  1  0  0  0
  2  3  1  0  0  0
  3 11  1  0  0  0
  3  4  2  0  0  0
  4  8  1  0  0  0
  4  5  1  0  0  0
  5  6  2  0  0  0
  5 45  1  0  0  0
  6  7  1  0  0  0
  6 12  1  0  0  0
  7  8  1  0  0  0
  7 46  1  0  0  0
  8  9  2  0  0  0
  9 10  1  0  0  0
  9 47  1  0  0  0
 10 11  2  0  0  0
 10 48  1  0  0  0
 11 49  1  0  0  0
 12 13  2  0  0  0
 12 14  1  0  0  0
 14 15  1  0  0  0
 14 50  1  0  0  0
 15 16  1  0  0  0
 15 20  1  0  0  0
 15 51  1  0  0  0
 16 17  1  0  0  0
 16 52  1  0  0  0
 16 53  1  0  0  0
 17 18  1  0  0  0
 17 19  1  0  0  0
 17 54  1  0  0  0
 18 55  1  0  0  0
 18 56  1  0  0  0
 18 57  1  0  0  0
 19 58  1  0  0  0
 19 59  1  0  0  0
 19 60  1  0  0  0
 20 21  2  0  0  0
 20 22  1  0  0  0
 22 23  1  0  0  0
 22 61  1  0  0  0
 23 24  1  0  0  0
 23 31  1  0  0  0
 23 62  1  0  0  0
 24 25  1  0  0  0
 24 63  1  0  0  0
 24 64  1  0  0  0
 25 29  1  0  0  0
 25 26  1  0  0  0
 25 65  1  0  0  0
 26 27  1  0  0  0
 26 66  1  0  0  0
 26 67  1  0  0  0
 27 28  1  0  0  0
 27 68  1  0  0  0
 27 69  1  0  0  0
 28 29  1  0  0  0
 28 70  1  0  0  0
 29 30  2  0  0  0
 31 32  2  0  0  0
 31 33  1  0  0  0
 33 41  1  0  0  0
 33 34  2  0  0  0
 34 35  1  0  0  0
 35 40  2  0  0  0
 35 36  1  0  0  0
 36 37  2  0  0  0
 36 71  1  0  0  0
 37 38  1  0  0  0
 37 72  1  0  0  0
 38 39  2  0  0  0
 38 73  1  0  0  0
 39 40  1  0  0  0
 39 74  1  0  0  0
 40 41  1  0  0  0
M  END
$$$$
