
                    3D
 Schrodinger Suite 2019-4.
 59 62  0  0  1  0            999 V2000
  -21.3836   -3.5724  -22.5455 O   0  5  0  0  0  0
  -21.9090   -3.7259  -23.6671 C   0  0  0  0  0  0
  -21.7561   -4.6543  -24.6906 C   0  0  0  0  0  0
  -20.7732   -5.8111  -24.6652 C   0  0  0  0  0  0
  -19.3299   -5.4058  -24.7712 C   0  0  0  0  0  0
  -18.8132   -4.1294  -24.8002 C   0  0  0  0  0  0
  -17.4436   -4.2791  -24.8959 N   0  0  0  0  0  0
  -17.1914   -5.5883  -24.9297 C   0  0  0  0  0  0
  -18.2868   -6.3352  -24.8610 N   0  0  0  0  0  0
  -21.7782   -4.3324  -27.2248 C   0  0  0  0  0  0
  -22.1199   -5.2252  -28.4307 C   0  0  2  0  0  0
  -21.7142   -4.7257  -29.8334 C   0  0  0  0  0  0
  -22.5645   -3.5532  -30.3255 C   0  0  1  0  0  0
  -22.3209   -3.2301  -31.8135 C   0  0  0  0  0  0
  -23.1345   -2.0067  -32.2640 C   0  0  0  0  0  0
  -24.6285   -2.1530  -31.9299 C   0  0  0  0  0  0
  -24.7985   -2.5148  -30.4500 C   0  0  0  0  0  0
  -24.0666   -3.8204  -30.1264 C   0  0  2  0  0  0
  -24.4124   -4.3503  -28.7266 C   0  0  0  0  0  0
  -23.5684   -5.5030  -28.3640 N   0  0  0  0  0  0
  -24.0078   -6.6829  -27.8486 C   0  0  0  0  0  0
  -23.2794   -7.6705  -27.7555 O   0  0  0  0  0  0
  -25.4070   -6.8071  -27.3113 C   0  0  0  0  0  0
  -25.9232   -5.7820  -26.4899 C   0  0  0  0  0  0
  -27.2637   -5.8175  -26.0676 C   0  0  0  0  0  0
  -28.0974   -6.8877  -26.4395 C   0  0  0  0  0  0
  -29.3807   -6.9316  -26.0106 F   0  0  0  0  0  0
  -27.5986   -7.9046  -27.2716 C   0  0  0  0  0  0
  -26.2681   -7.8485  -27.7268 C   0  0  0  0  0  0
  -22.4974   -4.6928  -25.9913 N   0  3  0  0  0  0
  -22.6682   -2.9940  -23.9872 H   0  0  0  0  0  0
  -21.0228   -6.4925  -25.4782 H   0  0  0  0  0  0
  -20.9353   -6.3802  -23.7485 H   0  0  0  0  0  0
  -19.2777   -3.1574  -24.7658 H   0  0  0  0  0  0
  -16.7604   -3.5314  -24.9514 H   0  0  0  0  0  0
  -16.1962   -6.0002  -25.0088 H   0  0  0  0  0  0
  -22.0879   -3.3326  -27.5269 H   0  0  0  0  0  0
  -20.7110   -4.3053  -27.0075 H   0  0  0  0  0  0
  -21.5396   -6.1390  -28.2909 H   0  0  0  0  0  0
  -21.8175   -5.5561  -30.5338 H   0  0  0  0  0  0
  -20.6590   -4.4537  -29.8483 H   0  0  0  0  0  0
  -22.2787   -2.6827  -29.7321 H   0  0  0  0  0  0
  -22.5956   -4.0890  -32.4291 H   0  0  0  0  0  0
  -21.2628   -3.0592  -31.9993 H   0  0  0  0  0  0
  -22.9969   -1.8758  -33.3341 H   0  0  0  0  0  0
  -22.7393   -1.1108  -31.7829 H   0  0  0  0  0  0
  -25.0741   -2.9259  -32.5574 H   0  0  0  0  0  0
  -25.1560   -1.2247  -32.1518 H   0  0  0  0  0  0
  -25.8380   -2.5631  -30.1606 H   0  0  0  0  0  0
  -24.3709   -1.7173  -29.8504 H   0  0  0  0  0  0
  -24.3852   -4.5879  -30.8345 H   0  0  0  0  0  0
  -25.4654   -4.6172  -28.7370 H   0  0  0  0  0  0
  -24.3152   -3.5588  -27.9838 H   0  0  0  0  0  0
  -25.3008   -4.9492  -26.1962 H   0  0  0  0  0  0
  -27.6534   -5.0154  -25.4627 H   0  0  0  0  0  0
  -28.2447   -8.7139  -27.5789 H   0  0  0  0  0  0
  -25.9143   -8.6080  -28.4042 H   0  0  0  0  0  0
  -23.2783   -4.0568  -25.9094 H   0  0  0  0  0  0
  -22.8754   -5.6201  -26.1242 H   0  0  0  0  0  0
  1  2  1  0  0  0
  2  3  2  0  0  0
  2 31  1  0  0  0
  3  4  1  0  0  0
  3 30  1  0  0  0
  4  5  1  0  0  0
  4 32  1  0  0  0
  4 33  1  0  0  0
  5  9  1  0  0  0
  5  6  2  0  0  0
  6  7  1  0  0  0
  6 34  1  0  0  0
  7  8  1  0  0  0
  7 35  1  0  0  0
  8  9  2  0  0  0
  8 36  1  0  0  0
 10 11  1  0  0  0
 10 30  1  0  0  0
 10 37  1  0  0  0
 10 38  1  0  0  0
 11 20  1  0  0  0
 11 12  1  0  0  0
 11 39  1  0  0  0
 12 13  1  0  0  0
 12 40  1  0  0  0
 12 41  1  0  0  0
 13 18  1  0  0  0
 13 14  1  0  0  0
 13 42  1  0  0  0
 14 15  1  0  0  0
 14 43  1  0  0  0
 14 44  1  0  0  0
 15 16  1  0  0  0
 15 45  1  0  0  0
 15 46  1  0  0  0
 16 17  1  0  0  0
 16 47  1  0  0  0
 16 48  1  0  0  0
 17 18  1  0  0  0
 17 49  1  0  0  0
 17 50  1  0  0  0
 18 19  1  0  0  0
 18 51  1  0  0  0
 19 20  1  0  0  0
 19 52  1  0  0  0
 19 53  1  0  0  0
 20 21  1  0  0  0
 21 22  2  0  0  0
 21 23  1  0  0  0
 23 29  1  0  0  0
 23 24  2  0  0  0
 24 25  1  0  0  0
 24 54  1  0  0  0
 25 26  2  0  0  0
 25 55  1  0  0  0
 26 27  1  0  0  0
 26 28  1  0  0  0
 28 29  2  0  0  0
 28 56  1  0  0  0
 29 57  1  0  0  0
 30 58  1  0  0  0
 30 59  1  0  0  0
M  CHG  2   1  -1  30   1
M  END
$$$$
