
                    3D
 Schrodinger Suite 2019-4.
 94 97  0  0  1  0            999 V2000
  -23.5924   -8.6510  -26.3913 C   0  0  0  0  0  0
  -24.0052   -7.6642  -27.4977 C   0  0  0  0  0  0
  -25.4826   -7.8768  -27.8584 C   0  0  0  0  0  0
  -23.1156   -7.7470  -28.7659 C   0  0  0  0  0  0
  -21.6018   -7.4652  -28.5537 C   0  0  1  0  0  0
  -20.7620   -7.6386  -29.7430 N   0  0  0  0  0  0
  -20.9692   -7.2060  -30.9962 C   0  0  0  0  0  0
  -22.0053   -6.6489  -31.3646 O   0  0  0  0  0  0
  -19.7920   -7.3696  -31.9731 C   0  0  2  0  0  0
  -19.7960   -6.1744  -32.7863 N   0  0  0  0  0  0
  -18.8253   -5.6449  -33.5295 C   0  0  0  0  0  0
  -17.7790   -6.2121  -33.8375 O   0  0  0  0  0  0
  -19.1338   -4.2323  -33.9860 C   0  0  0  0  0  0
  -19.3766   -3.4731  -32.8148 O   0  0  0  0  0  0
  -20.6478   -3.3115  -32.3065 C   0  0  0  0  0  0
  -20.7935   -3.3129  -30.9072 C   0  0  0  0  0  0
  -22.0022   -2.9531  -30.2976 C   0  0  0  0  0  0
  -23.1439   -2.7051  -31.0767 C   0  0  0  0  0  0
  -23.0174   -2.7887  -32.4814 C   0  0  0  0  0  0
  -21.7803   -3.0579  -33.0988 C   0  0  0  0  0  0
  -24.3721   -2.3922  -30.4586 N   0  0  0  0  0  0
  -25.4547   -1.8485  -31.2603 C   0  0  0  0  0  0
  -24.5901   -2.7629  -29.0650 C   0  0  0  0  0  0
  -19.7693   -8.6481  -32.8499 C   0  0  0  0  0  0
  -20.9712   -8.7907  -33.7890 C   0  0  0  0  0  0
  -19.6180   -9.9267  -32.0147 C   0  0  0  0  0  0
  -21.2878   -6.1497  -27.8466 C   0  0  0  0  0  0
  -21.2055   -5.1085  -28.4863 O   0  0  0  0  0  0
  -21.1325   -6.2083  -26.5167 N   0  0  0  0  0  0
  -21.0058   -5.0769  -25.6082 C   0  0  2  0  0  0
  -22.2652   -4.2009  -25.6922 C   0  0  0  0  0  0
  -22.4011   -3.1870  -24.5577 C   0  0  1  0  0  0
  -23.4256   -2.1229  -24.9118 C   0  0  0  0  0  0
  -24.2285   -1.8635  -23.6462 C   0  0  0  0  0  0
  -23.8800   -2.9443  -22.7503 N   0  0  0  0  0  0
  -22.9114   -3.7207  -23.2290 C   0  0  0  0  0  0
  -22.4622   -4.7220  -22.6808 O   0  0  0  0  0  0
  -19.6877   -4.3185  -25.8654 C   0  0  0  0  0  0
  -19.6196   -3.2434  -26.4564 O   0  0  0  0  0  0
  -18.4522   -5.0096  -25.4430 C   0  0  0  0  0  0
  -18.4193   -6.2048  -24.8452 N   0  0  0  0  0  0
  -17.1086   -6.6365  -24.7340 C   0  0  0  0  0  0
  -16.6695   -7.8881  -24.2542 C   0  0  0  0  0  0
  -15.2998   -8.2085  -24.2156 C   0  0  0  0  0  0
  -14.3477   -7.2644  -24.6322 C   0  0  0  0  0  0
  -14.7594   -6.0064  -25.0952 C   0  0  0  0  0  0
  -16.1246   -5.7087  -25.1726 C   0  0  0  0  0  0
  -16.8960   -4.2765  -25.8224 S   0  0  0  0  0  0
  -22.5694   -8.4953  -26.0515 H   0  0  0  0  0  0
  -24.2356   -8.5428  -25.5173 H   0  0  0  0  0  0
  -23.6754   -9.6825  -26.7346 H   0  0  0  0  0  0
  -23.9321   -6.6564  -27.0908 H   0  0  0  0  0  0
  -25.8082   -7.1715  -28.6210 H   0  0  0  0  0  0
  -25.6595   -8.8812  -28.2444 H   0  0  0  0  0  0
  -26.1264   -7.7385  -26.9887 H   0  0  0  0  0  0
  -23.5243   -7.0356  -29.4839 H   0  0  0  0  0  0
  -23.2355   -8.7307  -29.2226 H   0  0  0  0  0  0
  -21.2340   -8.2404  -27.8854 H   0  0  0  0  0  0
  -19.8732   -8.0874  -29.5690 H   0  0  0  0  0  0
  -18.8737   -7.3449  -31.3836 H   0  0  0  0  0  0
  -20.6161   -5.5983  -32.6567 H   0  0  0  0  0  0
  -19.9713   -4.2201  -34.6753 H   0  0  0  0  0  0
  -18.2728   -3.8334  -34.5204 H   0  0  0  0  0  0
  -19.9566   -3.5509  -30.2736 H   0  0  0  0  0  0
  -22.0325   -2.8849  -29.2210 H   0  0  0  0  0  0
  -23.8742   -2.6330  -33.1061 H   0  0  0  0  0  0
  -21.7088   -3.0347  -34.1730 H   0  0  0  0  0  0
  -26.3099   -1.5915  -30.6412 H   0  0  0  0  0  0
  -25.1276   -0.9337  -31.7516 H   0  0  0  0  0  0
  -25.7891   -2.5559  -32.0192 H   0  0  0  0  0  0
  -25.6351   -2.6357  -28.7812 H   0  0  0  0  0  0
  -24.3271   -3.8089  -28.9032 H   0  0  0  0  0  0
  -23.9875   -2.1476  -28.3984 H   0  0  0  0  0  0
  -18.8821   -8.5887  -33.4811 H   0  0  0  0  0  0
  -20.7456   -9.4643  -34.6164 H   0  0  0  0  0  0
  -21.8146   -9.2125  -33.2461 H   0  0  0  0  0  0
  -21.2850   -7.8395  -34.2104 H   0  0  0  0  0  0
  -19.5007  -10.7997  -32.6582 H   0  0  0  0  0  0
  -18.7417   -9.8737  -31.3681 H   0  0  0  0  0  0
  -20.4883  -10.1022  -31.3815 H   0  0  0  0  0  0
  -21.1856   -7.1192  -26.0849 H   0  0  0  0  0  0
  -20.9644   -5.5128  -24.6110 H   0  0  0  0  0  0
  -23.1530   -4.8360  -25.7013 H   0  0  0  0  0  0
  -22.2795   -3.6659  -26.6426 H   0  0  0  0  0  0
  -21.4371   -2.7386  -24.3411 H   0  0  0  0  0  0
  -24.0852   -2.4407  -25.7190 H   0  0  0  0  0  0
  -22.9045   -1.2356  -25.2403 H   0  0  0  0  0  0
  -25.3016   -1.8351  -23.8365 H   0  0  0  0  0  0
  -23.9058   -0.9188  -23.2266 H   0  0  0  0  0  0
  -24.3659   -3.1096  -21.8796 H   0  0  0  0  0  0
  -17.3966   -8.6121  -23.9183 H   0  0  0  0  0  0
  -14.9782   -9.1740  -23.8568 H   0  0  0  0  0  0
  -13.2957   -7.5092  -24.5964 H   0  0  0  0  0  0
  -14.0376   -5.2909  -25.4399 H   0  0  0  0  0  0
  1  2  1  0  0  0
  1 49  1  0  0  0
  1 50  1  0  0  0
  1 51  1  0  0  0
  2  3  1  0  0  0
  2  4  1  0  0  0
  2 52  1  0  0  0
  3 53  1  0  0  0
  3 54  1  0  0  0
  3 55  1  0  0  0
  4  5  1  0  0  0
  4 56  1  0  0  0
  4 57  1  0  0  0
  5  6  1  0  0  0
  5 27  1  0  0  0
  5 58  1  0  0  0
  6  7  1  0  0  0
  6 59  1  0  0  0
  7  8  2  0  0  0
  7  9  1  0  0  0
  9 10  1  0  0  0
  9 24  1  0  0  0
  9 60  1  0  0  0
 10 11  1  0  0  0
 10 61  1  0  0  0
 11 12  2  0  0  0
 11 13  1  0  0  0
 13 14  1  0  0  0
 13 62  1  0  0  0
 13 63  1  0  0  0
 14 15  1  0  0  0
 15 20  1  0  0  0
 15 16  2  0  0  0
 16 17  1  0  0  0
 16 64  1  0  0  0
 17 18  2  0  0  0
 17 65  1  0  0  0
 18 19  1  0  0  0
 18 21  1  0  0  0
 19 20  2  0  0  0
 19 66  1  0  0  0
 20 67  1  0  0  0
 21 22  1  0  0  0
 21 23  1  0  0  0
 22 68  1  0  0  0
 22 69  1  0  0  0
 22 70  1  0  0  0
 23 71  1  0  0  0
 23 72  1  0  0  0
 23 73  1  0  0  0
 24 25  1  0  0  0
 24 26  1  0  0  0
 24 74  1  0  0  0
 25 75  1  0  0  0
 25 76  1  0  0  0
 25 77  1  0  0  0
 26 78  1  0  0  0
 26 79  1  0  0  0
 26 80  1  0  0  0
 27 28  2  0  0  0
 27 29  1  0  0  0
 29 30  1  0  0  0
 29 81  1  0  0  0
 30 31  1  0  0  0
 30 38  1  0  0  0
 30 82  1  0  0  0
 31 32  1  0  0  0
 31 83  1  0  0  0
 31 84  1  0  0  0
 32 36  1  0  0  0
 32 33  1  0  0  0
 32 85  1  0  0  0
 33 34  1  0  0  0
 33 86  1  0  0  0
 33 87  1  0  0  0
 34 35  1  0  0  0
 34 88  1  0  0  0
 34 89  1  0  0  0
 35 36  1  0  0  0
 35 90  1  0  0  0
 36 37  2  0  0  0
 38 39  2  0  0  0
 38 40  1  0  0  0
 40 48  1  0  0  0
 40 41  2  0  0  0
 41 42  1  0  0  0
 42 47  1  0  0  0
 42 43  2  0  0  0
 43 44  1  0  0  0
 43 91  1  0  0  0
 44 45  2  0  0  0
 44 92  1  0  0  0
 45 46  1  0  0  0
 45 93  1  0  0  0
 46 47  2  0  0  0
 46 94  1  0  0  0
 47 48  1  0  0  0
M  END
$$$$
