
                    3D
 Schrodinger Suite 2019-4.
 62 64  0  0  1  0            999 V2000
  -18.5868   -8.9542  -29.8441 C   0  0  0  0  0  0
  -19.7685   -8.8998  -28.8539 C   0  0  0  0  0  0
  -21.0825   -9.1113  -29.6418 C   0  0  0  0  0  0
  -19.5853  -10.0255  -27.8095 C   0  0  0  0  0  0
  -19.7341   -7.5785  -28.2194 N   0  0  0  0  0  0
  -20.5586   -7.0786  -27.2778 C   0  0  0  0  0  0
  -21.5230   -7.6849  -26.8128 O   0  0  0  0  0  0
  -20.2116   -5.6414  -26.7854 C   0  0  2  0  0  0
  -18.8891   -5.4854  -26.0320 C   0  0  0  0  0  0
  -18.4091   -4.2287  -25.6455 C   0  0  0  0  0  0
  -17.2023   -4.0852  -25.0412 N   0  0  0  0  0  0
  -16.4619   -5.2054  -24.8433 C   0  0  0  0  0  0
  -16.9328   -6.4629  -25.2140 C   0  0  0  0  0  0
  -18.1486   -6.6106  -25.7927 N   0  0  0  0  0  0
  -21.3882   -4.8669  -26.2515 N   0  0  0  0  0  0
  -21.6992   -4.8159  -24.9113 C   0  0  0  0  0  0
  -20.9767   -5.2850  -24.0392 O   0  0  0  0  0  0
  -22.8787   -4.1296  -24.4298 C   0  0  0  0  0  0
  -23.5412   -4.2722  -23.2141 C   0  0  0  0  0  0
  -24.4751   -3.2454  -23.1185 C   0  0  0  0  0  0
  -24.3118   -2.4850  -24.2553 C   0  0  0  0  0  0
  -23.3458   -3.0150  -25.0505 O   0  0  0  0  0  0
  -22.2964   -4.4340  -27.2404 C   0  0  0  0  0  0
  -23.4192   -5.1877  -27.5841 C   0  0  0  0  0  0
  -24.1751   -4.8230  -28.6948 C   0  0  0  0  0  0
  -23.8495   -3.6853  -29.4538 C   0  0  0  0  0  0
  -24.6366   -3.3526  -30.7475 C   0  0  0  0  0  0
  -24.0866   -4.2271  -31.8947 C   0  0  0  0  0  0
  -24.5135   -1.8650  -31.1690 C   0  0  0  0  0  0
  -26.1466   -3.6501  -30.5816 C   0  0  0  0  0  0
  -22.7525   -2.9088  -29.0529 C   0  0  0  0  0  0
  -21.9827   -3.2850  -27.9586 C   0  0  0  0  0  0
  -17.6294   -8.8165  -29.3366 H   0  0  0  0  0  0
  -18.5409   -9.9132  -30.3615 H   0  0  0  0  0  0
  -18.6621   -8.1772  -30.6071 H   0  0  0  0  0  0
  -21.9543   -9.1223  -28.9864 H   0  0  0  0  0  0
  -21.2402   -8.3229  -30.3797 H   0  0  0  0  0  0
  -21.0773  -10.0622  -30.1767 H   0  0  0  0  0  0
  -20.4090  -10.0585  -27.0952 H   0  0  0  0  0  0
  -19.5342  -11.0070  -28.2827 H   0  0  0  0  0  0
  -18.6656   -9.8896  -27.2374 H   0  0  0  0  0  0
  -18.9620   -6.9982  -28.5103 H   0  0  0  0  0  0
  -20.0372   -5.1603  -27.7492 H   0  0  0  0  0  0
  -18.9791   -3.3291  -25.8243 H   0  0  0  0  0  0
  -15.4809   -5.0904  -24.4140 H   0  0  0  0  0  0
  -16.3349   -7.3523  -25.0718 H   0  0  0  0  0  0
  -23.3653   -5.0366  -22.4705 H   0  0  0  0  0  0
  -25.1669   -3.0679  -22.3071 H   0  0  0  0  0  0
  -24.7825   -1.5889  -24.6223 H   0  0  0  0  0  0
  -23.6657   -6.0849  -27.0370 H   0  0  0  0  0  0
  -24.9914   -5.4682  -28.9778 H   0  0  0  0  0  0
  -24.6526   -4.0803  -32.8137 H   0  0  0  0  0  0
  -23.0421   -3.9995  -32.1124 H   0  0  0  0  0  0
  -24.1418   -5.2871  -31.6456 H   0  0  0  0  0  0
  -25.1647   -1.6398  -32.0137 H   0  0  0  0  0  0
  -24.7906   -1.1916  -30.3586 H   0  0  0  0  0  0
  -23.5030   -1.6046  -31.4861 H   0  0  0  0  0  0
  -26.7226   -3.3316  -31.4522 H   0  0  0  0  0  0
  -26.3231   -4.7184  -30.4765 H   0  0  0  0  0  0
  -26.5663   -3.1480  -29.7088 H   0  0  0  0  0  0
  -22.4547   -2.0239  -29.5937 H   0  0  0  0  0  0
  -21.1227   -2.6968  -27.6838 H   0  0  0  0  0  0
  1  2  1  0  0  0
  1 33  1  0  0  0
  1 34  1  0  0  0
  1 35  1  0  0  0
  2  3  1  0  0  0
  2  4  1  0  0  0
  2  5  1  0  0  0
  3 36  1  0  0  0
  3 37  1  0  0  0
  3 38  1  0  0  0
  4 39  1  0  0  0
  4 40  1  0  0  0
  4 41  1  0  0  0
  5  6  1  0  0  0
  5 42  1  0  0  0
  6  7  2  0  0  0
  6  8  1  0  0  0
  8  9  1  0  0  0
  8 15  1  0  0  0
  8 43  1  0  0  0
  9 14  1  0  0  0
  9 10  2  0  0  0
 10 11  1  0  0  0
 10 44  1  0  0  0
 11 12  2  0  0  0
 12 13  1  0  0  0
 12 45  1  0  0  0
 13 14  2  0  0  0
 13 46  1  0  0  0
 15 16  1  0  0  0
 15 23  1  0  0  0
 16 17  2  0  0  0
 16 18  1  0  0  0
 18 22  1  0  0  0
 18 19  2  0  0  0
 19 20  1  0  0  0
 19 47  1  0  0  0
 20 21  2  0  0  0
 20 48  1  0  0  0
 21 22  1  0  0  0
 21 49  1  0  0  0
 23 32  1  0  0  0
 23 24  2  0  0  0
 24 25  1  0  0  0
 24 50  1  0  0  0
 25 26  2  0  0  0
 25 51  1  0  0  0
 26 27  1  0  0  0
 26 31  1  0  0  0
 27 28  1  0  0  0
 27 29  1  0  0  0
 27 30  1  0  0  0
 28 52  1  0  0  0
 28 53  1  0  0  0
 28 54  1  0  0  0
 29 55  1  0  0  0
 29 56  1  0  0  0
 29 57  1  0  0  0
 30 58  1  0  0  0
 30 59  1  0  0  0
 30 60  1  0  0  0
 31 32  2  0  0  0
 31 61  1  0  0  0
 32 62  1  0  0  0
M  END
$$$$
