
                    3D
 Schrodinger Suite 2019-4.
 68 69  0  0  1  0            999 V2000
  -21.9239   -6.0161  -23.9293 C   0  0  0  0  0  0
  -20.9087   -5.0211  -24.5179 C   0  0  2  0  0  0
  -21.1626   -4.7709  -25.9478 N   0  0  0  0  0  0
  -21.1442   -5.6534  -26.9639 C   0  0  0  0  0  0
  -20.9120   -6.8566  -26.8152 O   0  0  0  0  0  0
  -21.3982   -5.0761  -28.3749 C   0  0  2  0  0  0
  -22.7987   -4.4274  -28.5618 C   0  0  0  0  0  0
  -22.9719   -3.7231  -29.8989 C   0  0  0  0  0  0
  -22.6532   -2.3554  -30.0262 C   0  0  0  0  0  0
  -22.6181   -1.7618  -31.2771 C   0  0  0  0  0  0
  -22.8886   -2.5165  -32.4109 C   0  0  0  0  0  0
  -23.1971   -3.8647  -32.3073 C   0  0  0  0  0  0
  -23.2323   -4.4760  -31.0649 C   0  0  0  0  0  0
  -21.1846   -6.0710  -29.4413 N   0  0  0  0  0  0
  -20.0019   -6.1377  -30.1583 C   0  0  0  0  0  0
  -19.0234   -5.3980  -30.0405 O   0  0  0  0  0  0
  -20.0910   -7.1907  -30.9978 O   0  0  0  0  0  0
  -18.9558   -7.7177  -31.6842 C   0  0  0  0  0  0
  -18.0628   -8.6003  -30.8075 C   0  0  0  0  0  0
  -16.8792   -9.0981  -31.3641 C   0  0  0  0  0  0
  -16.0223   -9.8849  -30.5997 C   0  0  0  0  0  0
  -16.3595  -10.1840  -29.2814 C   0  0  0  0  0  0
  -17.5423   -9.7083  -28.7202 C   0  0  0  0  0  0
  -18.3903   -8.9135  -29.4800 C   0  0  0  0  0  0
  -19.4540   -5.4054  -24.1657 C   0  0  0  0  0  0
  -18.9631   -4.9098  -23.1521 O   0  0  0  0  0  0
  -18.7896   -6.1971  -25.0339 N   0  0  0  0  0  0
  -17.3670   -6.6104  -25.0975 C   0  0  1  0  0  0
  -16.3381   -5.5026  -24.6890 C   0  0  0  0  0  0
  -16.1555   -4.2673  -25.6158 C   0  0  0  0  0  0
  -17.4313   -3.6336  -26.1722 C   0  0  0  0  0  0
  -17.7587   -2.4140  -25.7712 N   0  0  0  0  0  0
  -18.1308   -4.2346  -26.9746 O   0  0  0  0  0  0
  -17.2042   -7.8820  -24.2614 C   0  0  0  0  0  0
  -17.7559   -8.0372  -23.1748 O   0  0  0  0  0  0
  -16.1485   -8.9049  -24.7046 C   0  0  0  0  0  0
  -16.1534   -9.0200  -26.0309 F   0  0  0  0  0  0
  -14.9503   -8.5134  -24.2733 F   0  0  0  0  0  0
  -16.4193  -10.0963  -24.1647 F   0  0  0  0  0  0
  -21.7667   -6.1565  -22.8602 H   0  0  0  0  0  0
  -22.9467   -5.6659  -24.0663 H   0  0  0  0  0  0
  -21.8453   -6.9961  -24.3973 H   0  0  0  0  0  0
  -21.0869   -4.0617  -24.0306 H   0  0  0  0  0  0
  -21.3012   -3.7981  -26.1825 H   0  0  0  0  0  0
  -20.6682   -4.2704  -28.4965 H   0  0  0  0  0  0
  -23.0105   -3.7108  -27.7655 H   0  0  0  0  0  0
  -23.5733   -5.1957  -28.4885 H   0  0  0  0  0  0
  -22.4198   -1.7678  -29.1507 H   0  0  0  0  0  0
  -22.3697   -0.7150  -31.3702 H   0  0  0  0  0  0
  -22.8538   -2.0604  -33.3842 H   0  0  0  0  0  0
  -23.3917   -4.4451  -33.1977 H   0  0  0  0  0  0
  -23.4477   -5.5318  -30.9997 H   0  0  0  0  0  0
  -21.8545   -6.8182  -29.5432 H   0  0  0  0  0  0
  -18.3597   -6.9212  -32.1249 H   0  0  0  0  0  0
  -19.3244   -8.3263  -32.5093 H   0  0  0  0  0  0
  -16.6109   -8.8567  -32.3836 H   0  0  0  0  0  0
  -15.0947  -10.2520  -31.0192 H   0  0  0  0  0  0
  -15.6846  -10.7763  -28.6800 H   0  0  0  0  0  0
  -17.7891   -9.9438  -27.6960 H   0  0  0  0  0  0
  -19.2930   -8.5410  -29.0181 H   0  0  0  0  0  0
  -19.3477   -6.5220  -25.8154 H   0  0  0  0  0  0
  -17.1803   -6.8528  -26.1446 H   0  0  0  0  0  0
  -15.3480   -5.9561  -24.6069 H   0  0  0  0  0  0
  -16.5519   -5.1508  -23.6812 H   0  0  0  0  0  0
  -15.5483   -4.5379  -26.4771 H   0  0  0  0  0  0
  -15.5731   -3.5187  -25.0857 H   0  0  0  0  0  0
  -18.6085   -1.9869  -26.1046 H   0  0  0  0  0  0
  -17.1442   -1.9086  -25.1429 H   0  0  0  0  0  0
  1  2  1  0  0  0
  1 40  1  0  0  0
  1 41  1  0  0  0
  1 42  1  0  0  0
  2  3  1  0  0  0
  2 25  1  0  0  0
  2 43  1  0  0  0
  3  4  1  0  0  0
  3 44  1  0  0  0
  4  5  2  0  0  0
  4  6  1  0  0  0
  6  7  1  0  0  0
  6 14  1  0  0  0
  6 45  1  0  0  0
  7  8  1  0  0  0
  7 46  1  0  0  0
  7 47  1  0  0  0
  8 13  1  0  0  0
  8  9  2  0  0  0
  9 10  1  0  0  0
  9 48  1  0  0  0
 10 11  2  0  0  0
 10 49  1  0  0  0
 11 12  1  0  0  0
 11 50  1  0  0  0
 12 13  2  0  0  0
 12 51  1  0  0  0
 13 52  1  0  0  0
 14 15  1  0  0  0
 14 53  1  0  0  0
 15 16  2  0  0  0
 15 17  1  0  0  0
 17 18  1  0  0  0
 18 19  1  0  0  0
 18 54  1  0  0  0
 18 55  1  0  0  0
 19 24  1  0  0  0
 19 20  2  0  0  0
 20 21  1  0  0  0
 20 56  1  0  0  0
 21 22  2  0  0  0
 21 57  1  0  0  0
 22 23  1  0  0  0
 22 58  1  0  0  0
 23 24  2  0  0  0
 23 59  1  0  0  0
 24 60  1  0  0  0
 25 26  2  0  0  0
 25 27  1  0  0  0
 27 28  1  0  0  0
 27 61  1  0  0  0
 28 29  1  0  0  0
 28 34  1  0  0  0
 28 62  1  0  0  0
 29 30  1  0  0  0
 29 63  1  0  0  0
 29 64  1  0  0  0
 30 31  1  0  0  0
 30 65  1  0  0  0
 30 66  1  0  0  0
 31 32  1  0  0  0
 31 33  2  0  0  0
 32 67  1  0  0  0
 32 68  1  0  0  0
 34 35  2  0  0  0
 34 36  1  0  0  0
 36 37  1  0  0  0
 36 38  1  0  0  0
 36 39  1  0  0  0
M  END
$$$$
