
                    3D
 Schrodinger Suite 2019-4.
 71 74  0  0  1  0            999 V2000
  -18.2139   -5.5025  -24.3671 C   0  0  0  0  0  0
  -19.2318   -4.8949  -25.3472 C   0  0  0  0  0  0
  -18.6880   -3.5895  -25.9546 C   0  0  0  0  0  0
  -20.6420   -4.7299  -24.7205 C   0  0  0  0  0  0
  -21.7647   -4.2315  -25.6699 C   0  0  2  0  0  0
  -23.0490   -4.2812  -24.9714 N   0  0  0  0  0  0
  -23.8589   -3.2253  -24.7795 C   0  0  0  0  0  0
  -23.5237   -2.0631  -24.9842 O   0  0  0  0  0  0
  -25.3136   -3.5097  -24.3800 C   0  0  0  0  0  0
  -26.1746   -3.3243  -25.5167 O   0  0  0  0  0  0
  -25.9453   -4.0718  -26.6569 C   0  0  0  0  0  0
  -26.1593   -3.4425  -27.8796 C   0  0  0  0  0  0
  -25.8598   -4.1120  -29.0594 C   0  0  0  0  0  0
  -25.3711   -5.4148  -29.0307 C   0  0  0  0  0  0
  -25.0575   -6.0576  -30.1960 O   0  0  0  0  0  0
  -25.2122   -6.0717  -27.8187 C   0  0  0  0  0  0
  -25.5005   -5.4047  -26.6316 C   0  0  0  0  0  0
  -21.8760   -5.0564  -26.9645 C   0  0  0  0  0  0
  -22.1447   -6.2579  -26.9124 O   0  0  0  0  0  0
  -21.6171   -4.3881  -28.1043 N   0  0  0  0  0  0
  -21.4079   -4.9512  -29.4566 C   0  0  1  0  0  0
  -21.1753   -3.7983  -30.4714 C   0  0  0  0  0  0
  -22.2994   -2.8162  -30.8942 C   0  0  2  0  0  0
  -22.9688   -1.9336  -29.8574 C   0  0  0  0  0  0
  -24.1989   -1.4481  -30.6069 C   0  0  0  0  0  0
  -24.4528   -2.5358  -31.5488 N   0  0  0  0  0  0
  -23.4620   -3.4321  -31.6719 C   0  0  0  0  0  0
  -23.4974   -4.5198  -32.2390 O   0  0  0  0  0  0
  -20.1142   -5.8023  -29.4721 C   0  0  0  0  0  0
  -19.2455   -5.6580  -28.6075 O   0  0  0  0  0  0
  -19.8197   -6.6879  -30.6031 C   0  0  0  0  0  0
  -18.6427   -7.1961  -30.8560 N   0  0  0  0  0  0
  -18.6271   -7.9334  -31.9945 C   0  0  0  0  0  0
  -17.4979   -8.5758  -32.5230 C   0  0  0  0  0  0
  -17.6445   -9.3256  -33.6897 C   0  0  0  0  0  0
  -18.8802   -9.4278  -34.3258 C   0  0  0  0  0  0
  -20.0140   -8.7800  -33.8345 C   0  0  0  0  0  0
  -19.8774   -8.0335  -32.6568 C   0  0  0  0  0  0
  -21.0708   -7.1104  -31.7547 S   0  0  0  0  0  0
  -18.6748   -5.7905  -23.4262 H   0  0  0  0  0  0
  -17.7583   -6.4041  -24.7865 H   0  0  0  0  0  0
  -17.4039   -4.8094  -24.1315 H   0  0  0  0  0  0
  -19.3212   -5.6262  -26.1471 H   0  0  0  0  0  0
  -19.2989   -3.2524  -26.7895 H   0  0  0  0  0  0
  -18.6691   -2.7917  -25.2149 H   0  0  0  0  0  0
  -17.6710   -3.7175  -26.3309 H   0  0  0  0  0  0
  -20.5772   -4.0482  -23.8708 H   0  0  0  0  0  0
  -20.9352   -5.6994  -24.3060 H   0  0  0  0  0  0
  -21.5343   -3.2064  -25.9642 H   0  0  0  0  0  0
  -23.4104   -5.2120  -24.8206 H   0  0  0  0  0  0
  -25.6033   -2.7934  -23.6103 H   0  0  0  0  0  0
  -25.4375   -4.4945  -23.9285 H   0  0  0  0  0  0
  -26.5342   -2.4299  -27.9065 H   0  0  0  0  0  0
  -26.0608   -3.6284  -29.9966 H   0  0  0  0  0  0
  -24.9504   -5.4636  -30.9414 H   0  0  0  0  0  0
  -24.8500   -7.0878  -27.7972 H   0  0  0  0  0  0
  -25.3625   -5.9223  -25.6959 H   0  0  0  0  0  0
  -21.4161   -3.3996  -28.0280 H   0  0  0  0  0  0
  -22.2854   -5.5344  -29.7414 H   0  0  0  0  0  0
  -20.7414   -4.1782  -31.3996 H   0  0  0  0  0  0
  -20.4026   -3.2009  -30.0094 H   0  0  0  0  0  0
  -21.8042   -2.1730  -31.6246 H   0  0  0  0  0  0
  -22.3522   -1.1124  -29.4992 H   0  0  0  0  0  0
  -23.2758   -2.5119  -28.9846 H   0  0  0  0  0  0
  -24.0203   -0.5120  -31.1280 H   0  0  0  0  0  0
  -25.0361   -1.3134  -29.9254 H   0  0  0  0  0  0
  -25.2916   -2.5711  -32.1063 H   0  0  0  0  0  0
  -16.5386   -8.5045  -32.0298 H   0  0  0  0  0  0
  -16.7875   -9.8418  -34.1004 H   0  0  0  0  0  0
  -18.9521  -10.0155  -35.2318 H   0  0  0  0  0  0
  -20.9611   -8.8521  -34.3456 H   0  0  0  0  0  0
  1  2  1  0  0  0
  1 40  1  0  0  0
  1 41  1  0  0  0
  1 42  1  0  0  0
  2  3  1  0  0  0
  2  4  1  0  0  0
  2 43  1  0  0  0
  3 44  1  0  0  0
  3 45  1  0  0  0
  3 46  1  0  0  0
  4  5  1  0  0  0
  4 47  1  0  0  0
  4 48  1  0  0  0
  5  6  1  0  0  0
  5 18  1  0  0  0
  5 49  1  0  0  0
  6  7  1  0  0  0
  6 50  1  0  0  0
  7  8  2  0  0  0
  7  9  1  0  0  0
  9 10  1  0  0  0
  9 51  1  0  0  0
  9 52  1  0  0  0
 10 11  1  0  0  0
 11 17  1  0  0  0
 11 12  2  0  0  0
 12 13  1  0  0  0
 12 53  1  0  0  0
 13 14  2  0  0  0
 13 54  1  0  0  0
 14 15  1  0  0  0
 14 16  1  0  0  0
 15 55  1  0  0  0
 16 17  2  0  0  0
 16 56  1  0  0  0
 17 57  1  0  0  0
 18 19  2  0  0  0
 18 20  1  0  0  0
 20 21  1  0  0  0
 20 58  1  0  0  0
 21 22  1  0  0  0
 21 29  1  0  0  0
 21 59  1  0  0  0
 22 23  1  0  0  0
 22 60  1  0  0  0
 22 61  1  0  0  0
 23 27  1  0  0  0
 23 24  1  0  0  0
 23 62  1  0  0  0
 24 25  1  0  0  0
 24 63  1  0  0  0
 24 64  1  0  0  0
 25 26  1  0  0  0
 25 65  1  0  0  0
 25 66  1  0  0  0
 26 27  1  0  0  0
 26 67  1  0  0  0
 27 28  2  0  0  0
 29 30  2  0  0  0
 29 31  1  0  0  0
 31 39  1  0  0  0
 31 32  2  0  0  0
 32 33  1  0  0  0
 33 38  2  0  0  0
 33 34  1  0  0  0
 34 35  2  0  0  0
 34 68  1  0  0  0
 35 36  1  0  0  0
 35 69  1  0  0  0
 36 37  2  0  0  0
 36 70  1  0  0  0
 37 38  1  0  0  0
 37 71  1  0  0  0
 38 39  1  0  0  0
M  END
$$$$
