
                    3D
 Schrodinger Suite 2019-4.
 74 78  0  0  1  0            999 V2000
  -16.3515  -11.5475  -33.7544 C   0  0  0  0  0  0
  -17.7522  -11.7063  -33.8154 O   0  0  0  0  0  0
  -18.5269  -10.7568  -33.1900 C   0  0  0  0  0  0
  -19.9194  -10.9019  -33.3324 C   0  0  0  0  0  0
  -20.8092  -10.0121  -32.7053 C   0  0  0  0  0  0
  -20.3354   -8.9466  -31.9116 C   0  0  0  0  0  0
  -20.9635   -7.9026  -31.1573 C   0  0  0  0  0  0
  -19.9605   -7.1674  -30.5783 C   0  0  0  0  0  0
  -18.7459   -7.7189  -30.9516 N   0  0  0  0  0  0
  -18.9256   -8.8083  -31.7782 C   0  0  0  0  0  0
  -18.0238   -9.6832  -32.4118 C   0  0  0  0  0  0
  -19.9736   -5.9923  -29.6904 C   0  0  0  0  0  0
  -18.9443   -5.5721  -29.1648 O   0  0  0  0  0  0
  -21.1722   -5.4201  -29.5139 N   0  0  0  0  0  0
  -21.4387   -4.2808  -28.6381 C   0  0  1  0  0  0
  -22.8147   -3.6865  -28.9989 C   0  0  0  0  0  0
  -22.9767   -3.2695  -30.4850 C   0  0  0  0  0  0
  -22.2706   -1.9571  -30.8621 C   0  0  0  0  0  0
  -24.4462   -3.1283  -30.8265 C   0  0  0  0  0  0
  -21.4437   -4.7730  -27.1807 C   0  0  0  0  0  0
  -21.8430   -5.9107  -26.9250 O   0  0  0  0  0  0
  -20.9750   -3.9409  -26.2342 N   0  0  0  0  0  0
  -20.7008   -4.3504  -24.8490 C   0  0  1  0  0  0
  -19.1777   -4.2171  -24.5934 C   0  0  0  0  0  0
  -18.3443   -5.2485  -25.3947 C   0  0  2  0  0  0
  -18.6647   -6.7148  -25.0581 C   0  0  0  0  0  0
  -17.3212   -7.4533  -25.0329 C   0  0  0  0  0  0
  -16.3386   -6.3982  -24.9328 N   0  0  0  0  0  0
  -16.8432   -5.1868  -25.1439 C   0  0  0  0  0  0
  -16.1878   -4.1535  -25.1816 O   0  0  0  0  0  0
  -21.5712   -3.5707  -23.8352 C   0  0  0  0  0  0
  -21.1044   -3.0110  -22.8428 O   0  0  0  0  0  0
  -23.0419   -3.5091  -24.0866 C   0  0  0  0  0  0
  -23.8594   -2.4596  -23.8918 N   0  0  0  0  0  0
  -25.1520   -2.7847  -24.3160 C   0  0  0  0  0  0
  -26.2900   -1.9477  -24.3796 C   0  0  0  0  0  0
  -27.5058   -2.4245  -24.9130 C   0  0  0  0  0  0
  -27.6433   -3.7520  -25.3364 C   0  0  0  0  0  0
  -26.5439   -4.6130  -25.2556 C   0  0  0  0  0  0
  -25.3195   -4.1223  -24.7777 C   0  0  0  0  0  0
  -23.8124   -4.9820  -24.6767 S   0  0  0  0  0  0
  -15.8602  -12.3396  -34.3183 H   0  0  0  0  0  0
  -16.0976  -10.5989  -34.2157 H   0  0  0  0  0  0
  -15.9781  -11.5791  -32.7297 H   0  0  0  0  0  0
  -20.3131  -11.7170  -33.9220 H   0  0  0  0  0  0
  -21.8730  -10.1518  -32.8226 H   0  0  0  0  0  0
  -22.0268   -7.7437  -31.0755 H   0  0  0  0  0  0
  -17.8605   -7.3174  -30.6691 H   0  0  0  0  0  0
  -16.9648   -9.5273  -32.2677 H   0  0  0  0  0  0
  -21.9718   -5.8450  -29.9622 H   0  0  0  0  0  0
  -20.6683   -3.5281  -28.7744 H   0  0  0  0  0  0
  -23.0185   -2.8294  -28.3582 H   0  0  0  0  0  0
  -23.5831   -4.4210  -28.7493 H   0  0  0  0  0  0
  -22.5961   -4.0596  -31.1299 H   0  0  0  0  0  0
  -22.9623   -1.2075  -31.2452 H   0  0  0  0  0  0
  -21.7836   -1.4949  -30.0117 H   0  0  0  0  0  0
  -21.5339   -2.1257  -31.6463 H   0  0  0  0  0  0
  -24.5883   -2.9129  -31.8865 H   0  0  0  0  0  0
  -25.0064   -4.0340  -30.5901 H   0  0  0  0  0  0
  -24.8468   -2.2965  -30.2486 H   0  0  0  0  0  0
  -20.6900   -3.0108  -26.5093 H   0  0  0  0  0  0
  -20.9542   -5.3992  -24.7023 H   0  0  0  0  0  0
  -18.9699   -4.3480  -23.5326 H   0  0  0  0  0  0
  -18.8463   -3.2072  -24.8397 H   0  0  0  0  0  0
  -18.4797   -5.0861  -26.4641 H   0  0  0  0  0  0
  -19.3571   -7.1593  -25.7746 H   0  0  0  0  0  0
  -19.1263   -6.7854  -24.0744 H   0  0  0  0  0  0
  -17.1542   -8.0080  -25.9579 H   0  0  0  0  0  0
  -17.2478   -8.1456  -24.1931 H   0  0  0  0  0  0
  -15.3510   -6.5855  -24.8113 H   0  0  0  0  0  0
  -26.2321   -0.9235  -24.0516 H   0  0  0  0  0  0
  -28.3702   -1.7901  -24.9836 H   0  0  0  0  0  0
  -28.5881   -4.1029  -25.7260 H   0  0  0  0  0  0
  -26.6298   -5.6363  -25.5916 H   0  0  0  0  0  0
  1  2  1  0  0  0
  1 42  1  0  0  0
  1 43  1  0  0  0
  1 44  1  0  0  0
  2  3  1  0  0  0
  3 11  1  0  0  0
  3  4  2  0  0  0
  4  5  1  0  0  0
  4 45  1  0  0  0
  5  6  2  0  0  0
  5 46  1  0  0  0
  6 10  1  0  0  0
  6  7  1  0  0  0
  7  8  2  0  0  0
  7 47  1  0  0  0
  8  9  1  0  0  0
  8 12  1  0  0  0
  9 10  1  0  0  0
  9 48  1  0  0  0
 10 11  2  0  0  0
 11 49  1  0  0  0
 12 13  2  0  0  0
 12 14  1  0  0  0
 14 15  1  0  0  0
 14 50  1  0  0  0
 15 16  1  0  0  0
 15 20  1  0  0  0
 15 51  1  0  0  0
 16 17  1  0  0  0
 16 52  1  0  0  0
 16 53  1  0  0  0
 17 18  1  0  0  0
 17 19  1  0  0  0
 17 54  1  0  0  0
 18 55  1  0  0  0
 18 56  1  0  0  0
 18 57  1  0  0  0
 19 58  1  0  0  0
 19 59  1  0  0  0
 19 60  1  0  0  0
 20 21  2  0  0  0
 20 22  1  0  0  0
 22 23  1  0  0  0
 22 61  1  0  0  0
 23 24  1  0  0  0
 23 31  1  0  0  0
 23 62  1  0  0  0
 24 25  1  0  0  0
 24 63  1  0  0  0
 24 64  1  0  0  0
 25 29  1  0  0  0
 25 26  1  0  0  0
 25 65  1  0  0  0
 26 27  1  0  0  0
 26 66  1  0  0  0
 26 67  1  0  0  0
 27 28  1  0  0  0
 27 68  1  0  0  0
 27 69  1  0  0  0
 28 29  1  0  0  0
 28 70  1  0  0  0
 29 30  2  0  0  0
 31 32  2  0  0  0
 31 33  1  0  0  0
 33 41  1  0  0  0
 33 34  2  0  0  0
 34 35  1  0  0  0
 35 40  2  0  0  0
 35 36  1  0  0  0
 36 37  2  0  0  0
 36 71  1  0  0  0
 37 38  1  0  0  0
 37 72  1  0  0  0
 38 39  2  0  0  0
 38 73  1  0  0  0
 39 40  1  0  0  0
 39 74  1  0  0  0
 40 41  1  0  0  0
M  END
$$$$
