
                    3D
 Schrodinger Suite 2019-4.
 95 96  0  0  1  0            999 V2000
  -26.2238   -2.1495  -22.3574 C   0  0  0  0  0  0
  -24.7572   -1.8306  -22.2609 C   0  0  0  0  0  0
  -24.0267   -2.7744  -22.9747 O   0  0  0  0  0  0
  -22.7160   -2.7048  -22.9298 C   0  0  0  0  0  0
  -22.0595   -2.0794  -22.0950 O   0  0  0  0  0  0
  -22.1687   -3.4335  -24.0579 C   0  0  0  0  0  0
  -20.8512   -3.5775  -24.1992 C   0  0  0  0  0  0
  -20.2153   -4.3030  -25.3531 C   0  0  2  0  0  0
  -18.6904   -4.1594  -25.2798 C   0  0  0  0  0  0
  -17.9536   -5.3235  -25.9470 C   0  0  2  0  0  0
  -18.3117   -6.7010  -25.3680 C   0  0  0  0  0  0
  -17.0004   -7.4896  -25.3295 C   0  0  0  0  0  0
  -15.9861   -6.4612  -25.3589 N   0  0  0  0  0  0
  -16.4607   -5.2637  -25.6873 C   0  0  0  0  0  0
  -15.8019   -4.2331  -25.7741 O   0  0  0  0  0  0
  -20.7027   -3.8547  -26.6635 N   0  0  0  0  0  0
  -21.5423   -4.5423  -27.4555 C   0  0  0  0  0  0
  -22.1711   -5.5298  -27.0705 O   0  0  0  0  0  0
  -21.6217   -4.1013  -28.9288 C   0  0  2  0  0  0
  -23.0389   -3.5934  -29.2829 C   0  0  0  0  0  0
  -23.2730   -3.3204  -30.7940 C   0  0  0  0  0  0
  -22.2628   -2.3493  -31.4183 C   0  0  0  0  0  0
  -24.6914   -2.8149  -31.0361 C   0  0  0  0  0  0
  -21.3214   -5.2733  -29.7467 N   0  0  0  0  0  0
  -20.0822   -5.6511  -30.0873 C   0  0  0  0  0  0
  -19.0862   -5.0178  -29.7534 O   0  0  0  0  0  0
  -19.9404   -6.9195  -30.9285 C   0  0  1  0  0  0
  -19.3181   -6.5868  -32.2115 N   0  0  0  0  0  0
  -19.8962   -6.8969  -33.4312 C   0  0  0  0  0  0
  -21.0174   -7.3766  -33.5940 O   0  0  0  0  0  0
  -19.0713   -6.5584  -34.4319 O   0  0  0  0  0  0
  -19.5411   -6.6787  -35.7725 C   0  0  0  0  0  0
  -19.4098   -8.0761  -36.3503 C   0  0  0  0  0  0
  -20.5739   -8.8399  -36.5626 C   0  0  0  0  0  0
  -20.4915  -10.1173  -37.1456 C   0  0  0  0  0  0
  -19.2378  -10.6420  -37.5157 C   0  0  0  0  0  0
  -18.0695   -9.8886  -37.2939 C   0  0  0  0  0  0
  -18.1544   -8.6102  -36.7097 C   0  0  0  0  0  0
  -19.2254   -8.1233  -30.2407 C   0  0  2  0  0  0
  -17.9630   -7.7810  -29.4236 C   0  0  0  0  0  0
  -18.9432   -9.0429  -31.2994 O   0  0  0  0  0  0
  -18.4240  -10.3545  -31.0830 C   0  0  0  0  0  0
  -18.8706  -11.0943  -32.3530 C   0  0  0  0  0  0
  -19.0219  -11.0586  -29.8511 C   0  0  0  0  0  0
  -16.8811  -10.3308  -31.0415 C   0  0  0  0  0  0
  -26.8181   -1.4257  -21.8024 H   0  0  0  0  0  0
  -26.5231   -2.1033  -23.4035 H   0  0  0  0  0  0
  -26.4423   -3.1447  -21.9723 H   0  0  0  0  0  0
  -24.4255   -1.7887  -21.2262 H   0  0  0  0  0  0
  -24.5834   -0.8844  -22.7588 H   0  0  0  0  0  0
  -22.8500   -3.8550  -24.7837 H   0  0  0  0  0  0
  -20.1840   -3.1553  -23.4598 H   0  0  0  0  0  0
  -20.4931   -5.3456  -25.1943 H   0  0  0  0  0  0
  -18.3676   -4.1224  -24.2373 H   0  0  0  0  0  0
  -18.3841   -3.2092  -25.7198 H   0  0  0  0  0  0
  -18.1105   -5.3111  -27.0258 H   0  0  0  0  0  0
  -19.0838   -7.1880  -25.9562 H   0  0  0  0  0  0
  -18.6937   -6.6037  -24.3510 H   0  0  0  0  0  0
  -16.8865   -8.1257  -26.2088 H   0  0  0  0  0  0
  -16.9148   -8.1077  -24.4360 H   0  0  0  0  0  0
  -15.0074   -6.6504  -25.1798 H   0  0  0  0  0  0
  -20.2628   -3.0328  -27.0539 H   0  0  0  0  0  0
  -20.8976   -3.3105  -29.1175 H   0  0  0  0  0  0
  -23.2330   -2.6774  -28.7206 H   0  0  0  0  0  0
  -23.7838   -4.3151  -28.9406 H   0  0  0  0  0  0
  -23.1894   -4.2656  -31.3320 H   0  0  0  0  0  0
  -22.5669   -2.0550  -32.4237 H   0  0  0  0  0  0
  -22.1449   -1.4422  -30.8238 H   0  0  0  0  0  0
  -21.2945   -2.8349  -31.5220 H   0  0  0  0  0  0
  -24.9075   -2.7150  -32.1012 H   0  0  0  0  0  0
  -25.3894   -3.5283  -30.6148 H   0  0  0  0  0  0
  -24.8651   -1.8491  -30.5594 H   0  0  0  0  0  0
  -22.1011   -5.8463  -30.0345 H   0  0  0  0  0  0
  -20.9572   -7.2657  -31.1233 H   0  0  0  0  0  0
  -18.3833   -6.1980  -32.2223 H   0  0  0  0  0  0
  -18.9973   -5.9901  -36.4079 H   0  0  0  0  0  0
  -20.5814   -6.3611  -35.8378 H   0  0  0  0  0  0
  -21.5358   -8.4370  -36.2865 H   0  0  0  0  0  0
  -21.3906  -10.6917  -37.3118 H   0  0  0  0  0  0
  -19.1737  -11.6190  -37.9713 H   0  0  0  0  0  0
  -17.1051  -10.2874  -37.5732 H   0  0  0  0  0  0
  -17.2451   -8.0561  -36.5559 H   0  0  0  0  0  0
  -19.9494   -8.5754  -29.5636 H   0  0  0  0  0  0
  -17.5993   -8.6373  -28.8631 H   0  0  0  0  0  0
  -17.1603   -7.4359  -30.0685 H   0  0  0  0  0  0
  -18.1545   -7.0296  -28.6619 H   0  0  0  0  0  0
  -18.5230  -12.1287  -32.3631 H   0  0  0  0  0  0
  -19.9581  -11.1097  -32.4390 H   0  0  0  0  0  0
  -18.4827  -10.6075  -33.2496 H   0  0  0  0  0  0
  -18.7919  -12.1246  -29.8677 H   0  0  0  0  0  0
  -18.6083  -10.6669  -28.9262 H   0  0  0  0  0  0
  -20.1070  -10.9550  -29.8129 H   0  0  0  0  0  0
  -16.4814  -11.3426  -31.1104 H   0  0  0  0  0  0
  -16.4774   -9.7607  -31.8791 H   0  0  0  0  0  0
  -16.4692   -9.9052  -30.1310 H   0  0  0  0  0  0
  1  2  1  0  0  0
  1 46  1  0  0  0
  1 47  1  0  0  0
  1 48  1  0  0  0
  2  3  1  0  0  0
  2 49  1  0  0  0
  2 50  1  0  0  0
  3  4  1  0  0  0
  4  5  2  0  0  0
  4  6  1  0  0  0
  6  7  2  0  0  0
  6 51  1  0  0  0
  7  8  1  0  0  0
  7 52  1  0  0  0
  8  9  1  0  0  0
  8 16  1  0  0  0
  8 53  1  0  0  0
  9 10  1  0  0  0
  9 54  1  0  0  0
  9 55  1  0  0  0
 10 14  1  0  0  0
 10 11  1  0  0  0
 10 56  1  0  0  0
 11 12  1  0  0  0
 11 57  1  0  0  0
 11 58  1  0  0  0
 12 13  1  0  0  0
 12 59  1  0  0  0
 12 60  1  0  0  0
 13 14  1  0  0  0
 13 61  1  0  0  0
 14 15  2  0  0  0
 16 17  1  0  0  0
 16 62  1  0  0  0
 17 18  2  0  0  0
 17 19  1  0  0  0
 19 20  1  0  0  0
 19 24  1  0  0  0
 19 63  1  0  0  0
 20 21  1  0  0  0
 20 64  1  0  0  0
 20 65  1  0  0  0
 21 22  1  0  0  0
 21 23  1  0  0  0
 21 66  1  0  0  0
 22 67  1  0  0  0
 22 68  1  0  0  0
 22 69  1  0  0  0
 23 70  1  0  0  0
 23 71  1  0  0  0
 23 72  1  0  0  0
 24 25  1  0  0  0
 24 73  1  0  0  0
 25 26  2  0  0  0
 25 27  1  0  0  0
 27 28  1  0  0  0
 27 39  1  0  0  0
 27 74  1  0  0  0
 28 29  1  0  0  0
 28 75  1  0  0  0
 29 30  2  0  0  0
 29 31  1  0  0  0
 31 32  1  0  0  0
 32 33  1  0  0  0
 32 76  1  0  0  0
 32 77  1  0  0  0
 33 38  1  0  0  0
 33 34  2  0  0  0
 34 35  1  0  0  0
 34 78  1  0  0  0
 35 36  2  0  0  0
 35 79  1  0  0  0
 36 37  1  0  0  0
 36 80  1  0  0  0
 37 38  2  0  0  0
 37 81  1  0  0  0
 38 82  1  0  0  0
 39 40  1  0  0  0
 39 41  1  0  0  0
 39 83  1  0  0  0
 40 84  1  0  0  0
 40 85  1  0  0  0
 40 86  1  0  0  0
 41 42  1  0  0  0
 42 43  1  0  0  0
 42 44  1  0  0  0
 42 45  1  0  0  0
 43 87  1  0  0  0
 43 88  1  0  0  0
 43 89  1  0  0  0
 44 90  1  0  0  0
 44 91  1  0  0  0
 44 92  1  0  0  0
 45 93  1  0  0  0
 45 94  1  0  0  0
 45 95  1  0  0  0
M  END
$$$$
