
                    3D
 Schrodinger Suite 2019-4.
 74 77  0  0  1  0            999 V2000
  -27.3526    0.2116  -34.1840 C   0  0  0  0  0  0
  -27.7390   -0.7224  -33.1899 O   0  0  0  0  0  0
  -26.7265   -1.3853  -32.5481 C   0  0  0  0  0  0
  -26.7425   -2.7724  -32.5840 C   0  0  0  0  0  0
  -25.7329   -3.4979  -31.9729 C   0  0  0  0  0  0
  -24.7868   -2.8370  -31.1982 C   0  0  0  0  0  0
  -23.9571   -3.5672  -30.3994 O   0  0  0  0  0  0
  -24.6514   -4.0791  -29.2564 C   0  0  0  0  0  0
  -23.7415   -4.9822  -28.4336 C   0  0  0  0  0  0
  -24.1675   -5.4612  -27.3840 O   0  0  0  0  0  0
  -22.4949   -5.1876  -28.8843 N   0  0  0  0  0  0
  -21.4176   -5.7752  -28.0978 C   0  0  1  0  0  0
  -20.2341   -6.1304  -29.0305 C   0  0  0  0  0  0
  -20.5202   -7.2647  -30.0397 C   0  0  0  0  0  0
  -20.8444   -8.6012  -29.3441 C   0  0  0  0  0  0
  -19.3620   -7.4092  -31.0479 C   0  0  0  0  0  0
  -20.9935   -4.7471  -27.0423 C   0  0  0  0  0  0
  -20.3352   -3.7732  -27.3838 O   0  0  0  0  0  0
  -21.3861   -4.9590  -25.7777 N   0  0  0  0  0  0
  -21.0243   -4.1123  -24.6277 C   0  0  1  0  0  0
  -21.7218   -4.5537  -23.3212 C   0  0  0  0  0  0
  -23.2637   -4.4310  -23.3586 C   0  0  2  0  0  0
  -23.7973   -3.0341  -23.6614 C   0  0  0  0  0  0
  -25.0800   -2.9703  -22.8699 C   0  0  0  0  0  0
  -24.7867   -3.8401  -21.7489 N   0  0  0  0  0  0
  -23.8556   -4.7757  -21.9853 C   0  0  0  0  0  0
  -23.5356   -5.7125  -21.2590 O   0  0  0  0  0  0
  -19.5136   -3.9789  -24.3830 C   0  0  0  0  0  0
  -19.1351   -2.9730  -23.7848 O   0  0  0  0  0  0
  -18.5175   -4.9971  -24.7570 C   0  0  0  0  0  0
  -17.2294   -4.7827  -24.8504 N   0  0  0  0  0  0
  -16.5297   -5.9437  -24.9543 C   0  0  0  0  0  0
  -15.1347   -6.0376  -24.9840 C   0  0  0  0  0  0
  -14.5565   -7.3079  -24.9839 C   0  0  0  0  0  0
  -15.3382   -8.4613  -25.0052 C   0  0  0  0  0  0
  -16.7303   -8.3938  -25.0284 C   0  0  0  0  0  0
  -17.3145   -7.1224  -24.9911 C   0  0  0  0  0  0
  -19.0001   -6.6728  -24.9670 S   0  0  0  0  0  0
  -24.7527   -1.4465  -31.1513 C   0  0  0  0  0  0
  -25.7220   -0.7226  -31.8391 C   0  0  0  0  0  0
  -28.2414    0.6531  -34.6284 H   0  0  0  0  0  0
  -26.7353    1.0207  -33.7887 H   0  0  0  0  0  0
  -26.8202   -0.2948  -34.9839 H   0  0  0  0  0  0
  -27.5231   -3.2814  -33.1290 H   0  0  0  0  0  0
  -25.7371   -4.5728  -32.0186 H   0  0  0  0  0  0
  -25.5342   -4.6598  -29.5276 H   0  0  0  0  0  0
  -24.9820   -3.2604  -28.6143 H   0  0  0  0  0  0
  -22.2260   -4.7375  -29.7469 H   0  0  0  0  0  0
  -21.7779   -6.6751  -27.5957 H   0  0  0  0  0  0
  -19.3694   -6.4135  -28.4266 H   0  0  0  0  0  0
  -19.9316   -5.2327  -29.5728 H   0  0  0  0  0  0
  -21.3970   -6.9744  -30.6202 H   0  0  0  0  0  0
  -20.3321   -9.4470  -29.8028 H   0  0  0  0  0  0
  -20.5556   -8.5894  -28.2929 H   0  0  0  0  0  0
  -21.9131   -8.8117  -29.3906 H   0  0  0  0  0  0
  -19.7396   -7.5683  -32.0592 H   0  0  0  0  0  0
  -18.7355   -6.5179  -31.0781 H   0  0  0  0  0  0
  -18.7039   -8.2461  -30.8062 H   0  0  0  0  0  0
  -22.0035   -5.7359  -25.5864 H   0  0  0  0  0  0
  -21.3976   -3.1152  -24.8711 H   0  0  0  0  0  0
  -21.3482   -3.9510  -22.4891 H   0  0  0  0  0  0
  -21.4503   -5.5882  -23.0985 H   0  0  0  0  0  0
  -23.6714   -5.1519  -24.0689 H   0  0  0  0  0  0
  -23.9350   -2.8288  -24.7237 H   0  0  0  0  0  0
  -23.1347   -2.2650  -23.2768 H   0  0  0  0  0  0
  -25.9354   -3.3745  -23.3840 H   0  0  0  0  0  0
  -25.3354   -1.9559  -22.5832 H   0  0  0  0  0  0
  -25.3371   -3.8281  -20.9008 H   0  0  0  0  0  0
  -14.5153   -5.1566  -24.9842 H   0  0  0  0  0  0
  -13.4798   -7.4037  -24.9964 H   0  0  0  0  0  0
  -14.8457   -9.4227  -25.0399 H   0  0  0  0  0  0
  -17.3357   -9.2883  -25.0622 H   0  0  0  0  0  0
  -24.0164   -0.9394  -30.5448 H   0  0  0  0  0  0
  -25.7235    0.3515  -31.7841 H   0  0  0  0  0  0
  1  2  1  0  0  0
  1 41  1  0  0  0
  1 42  1  0  0  0
  1 43  1  0  0  0
  2  3  1  0  0  0
  3 40  1  0  0  0
  3  4  2  0  0  0
  4  5  1  0  0  0
  4 44  1  0  0  0
  5  6  2  0  0  0
  5 45  1  0  0  0
  6  7  1  0  0  0
  6 39  1  0  0  0
  7  8  1  0  0  0
  8  9  1  0  0  0
  8 46  1  0  0  0
  8 47  1  0  0  0
  9 10  2  0  0  0
  9 11  1  0  0  0
 11 12  1  0  0  0
 11 48  1  0  0  0
 12 13  1  0  0  0
 12 17  1  0  0  0
 12 49  1  0  0  0
 13 14  1  0  0  0
 13 50  1  0  0  0
 13 51  1  0  0  0
 14 15  1  0  0  0
 14 16  1  0  0  0
 14 52  1  0  0  0
 15 53  1  0  0  0
 15 54  1  0  0  0
 15 55  1  0  0  0
 16 56  1  0  0  0
 16 57  1  0  0  0
 16 58  1  0  0  0
 17 18  2  0  0  0
 17 19  1  0  0  0
 19 20  1  0  0  0
 19 59  1  0  0  0
 20 21  1  0  0  0
 20 28  1  0  0  0
 20 60  1  0  0  0
 21 22  1  0  0  0
 21 61  1  0  0  0
 21 62  1  0  0  0
 22 26  1  0  0  0
 22 23  1  0  0  0
 22 63  1  0  0  0
 23 24  1  0  0  0
 23 64  1  0  0  0
 23 65  1  0  0  0
 24 25  1  0  0  0
 24 66  1  0  0  0
 24 67  1  0  0  0
 25 26  1  0  0  0
 25 68  1  0  0  0
 26 27  2  0  0  0
 28 29  2  0  0  0
 28 30  1  0  0  0
 30 38  1  0  0  0
 30 31  2  0  0  0
 31 32  1  0  0  0
 32 37  2  0  0  0
 32 33  1  0  0  0
 33 34  2  0  0  0
 33 69  1  0  0  0
 34 35  1  0  0  0
 34 70  1  0  0  0
 35 36  2  0  0  0
 35 71  1  0  0  0
 36 37  1  0  0  0
 36 72  1  0  0  0
 37 38  1  0  0  0
 39 40  2  0  0  0
 39 73  1  0  0  0
 40 74  1  0  0  0
M  END
$$$$
