
                    3D
 Schrodinger Suite 2019-4.
 62 64  0  0  1  0            999 V2000
  -18.4223   -9.4618  -29.2778 C   0  0  0  0  0  0
  -19.6416   -9.2817  -28.3577 C   0  0  0  0  0  0
  -20.9272   -9.6282  -29.1354 C   0  0  0  0  0  0
  -19.4736  -10.1976  -27.1250 C   0  0  0  0  0  0
  -19.6620   -7.8731  -27.9635 N   0  0  0  0  0  0
  -20.4888   -7.2710  -27.0920 C   0  0  0  0  0  0
  -21.4092   -7.8498  -26.5198 O   0  0  0  0  0  0
  -20.2105   -5.7854  -26.8087 C   0  0  2  0  0  0
  -18.8828   -5.6456  -26.0995 C   0  0  0  0  0  0
  -18.1638   -6.6922  -25.4568 C   0  0  0  0  0  0
  -16.8792   -6.4591  -24.9404 C   0  0  0  0  0  0
  -16.3582   -5.1620  -25.0255 C   0  0  0  0  0  0
  -17.0389   -4.1355  -25.5602 N   0  0  0  0  0  0
  -18.2556   -4.3813  -26.0779 C   0  0  0  0  0  0
  -21.3769   -5.0695  -26.2197 N   0  0  0  0  0  0
  -21.4893   -4.6837  -24.9181 C   0  0  0  0  0  0
  -20.6030   -4.7975  -24.0754 O   0  0  0  0  0  0
  -22.7199   -3.9633  -24.4958 C   0  0  0  0  0  0
  -24.0156   -4.1911  -24.7278 N   0  0  0  0  0  0
  -24.6855   -3.1882  -24.0440 C   0  0  0  0  0  0
  -23.7466   -2.4209  -23.4172 C   0  0  0  0  0  0
  -22.5127   -2.9321  -23.6399 O   0  0  0  0  0  0
  -22.2979   -4.6152  -27.2036 C   0  0  0  0  0  0
  -22.1380   -3.3328  -27.7575 C   0  0  0  0  0  0
  -22.9040   -2.9403  -28.8686 C   0  0  0  0  0  0
  -23.8252   -3.8343  -29.4617 C   0  0  0  0  0  0
  -24.5044   -3.4516  -30.7858 C   0  0  0  0  0  0
  -23.4297   -3.1319  -31.8369 C   0  0  0  0  0  0
  -25.4083   -2.2343  -30.5983 C   0  0  0  0  0  0
  -25.3834   -4.5739  -31.3473 C   0  0  0  0  0  0
  -24.0324   -5.0924  -28.8450 C   0  0  0  0  0  0
  -23.2807   -5.4778  -27.7227 C   0  0  0  0  0  0
  -17.4933   -9.2230  -28.7577 H   0  0  0  0  0  0
  -18.3408  -10.4883  -29.6360 H   0  0  0  0  0  0
  -18.4809   -8.8130  -30.1529 H   0  0  0  0  0  0
  -21.8231   -9.4924  -28.5312 H   0  0  0  0  0  0
  -21.0364   -8.9967  -30.0177 H   0  0  0  0  0  0
  -20.9173  -10.6648  -29.4729 H   0  0  0  0  0  0
  -20.3406  -10.1705  -26.4661 H   0  0  0  0  0  0
  -19.3391  -11.2363  -27.4264 H   0  0  0  0  0  0
  -18.6015   -9.9134  -26.5348 H   0  0  0  0  0  0
  -18.9399   -7.2987  -28.3731 H   0  0  0  0  0  0
  -20.0611   -5.3465  -27.7984 H   0  0  0  0  0  0
  -18.5592   -7.6933  -25.3804 H   0  0  0  0  0  0
  -16.3000   -7.2572  -24.5000 H   0  0  0  0  0  0
  -15.3632   -4.9451  -24.6816 H   0  0  0  0  0  0
  -18.7518   -3.5264  -26.5091 H   0  0  0  0  0  0
  -25.7584   -3.0825  -24.0658 H   0  0  0  0  0  0
  -23.7605   -1.5327  -22.8269 H   0  0  0  0  0  0
  -21.3865   -2.6764  -27.3534 H   0  0  0  0  0  0
  -22.7301   -1.9651  -29.2967 H   0  0  0  0  0  0
  -23.8872   -2.8675  -32.7839 H   0  0  0  0  0  0
  -22.8002   -2.2895  -31.5500 H   0  0  0  0  0  0
  -22.7793   -3.9899  -32.0129 H   0  0  0  0  0  0
  -25.8949   -1.9427  -31.5303 H   0  0  0  0  0  0
  -26.1892   -2.4763  -29.8795 H   0  0  0  0  0  0
  -24.8436   -1.3727  -30.2460 H   0  0  0  0  0  0
  -25.8144   -4.3023  -32.3116 H   0  0  0  0  0  0
  -24.8133   -5.4907  -31.4879 H   0  0  0  0  0  0
  -26.2050   -4.7844  -30.6693 H   0  0  0  0  0  0
  -24.7221   -5.8167  -29.2458 H   0  0  0  0  0  0
  -23.4227   -6.4623  -27.3045 H   0  0  0  0  0  0
  1  2  1  0  0  0
  1 33  1  0  0  0
  1 34  1  0  0  0
  1 35  1  0  0  0
  2  3  1  0  0  0
  2  4  1  0  0  0
  2  5  1  0  0  0
  3 36  1  0  0  0
  3 37  1  0  0  0
  3 38  1  0  0  0
  4 39  1  0  0  0
  4 40  1  0  0  0
  4 41  1  0  0  0
  5  6  1  0  0  0
  5 42  1  0  0  0
  6  7  2  0  0  0
  6  8  1  0  0  0
  8  9  1  0  0  0
  8 15  1  0  0  0
  8 43  1  0  0  0
  9 14  1  0  0  0
  9 10  2  0  0  0
 10 11  1  0  0  0
 10 44  1  0  0  0
 11 12  2  0  0  0
 11 45  1  0  0  0
 12 13  1  0  0  0
 12 46  1  0  0  0
 13 14  2  0  0  0
 14 47  1  0  0  0
 15 16  1  0  0  0
 15 23  1  0  0  0
 16 17  2  0  0  0
 16 18  1  0  0  0
 18 22  1  0  0  0
 18 19  2  0  0  0
 19 20  1  0  0  0
 20 21  2  0  0  0
 20 48  1  0  0  0
 21 22  1  0  0  0
 21 49  1  0  0  0
 23 32  1  0  0  0
 23 24  2  0  0  0
 24 25  1  0  0  0
 24 50  1  0  0  0
 25 26  2  0  0  0
 25 51  1  0  0  0
 26 27  1  0  0  0
 26 31  1  0  0  0
 27 28  1  0  0  0
 27 29  1  0  0  0
 27 30  1  0  0  0
 28 52  1  0  0  0
 28 53  1  0  0  0
 28 54  1  0  0  0
 29 55  1  0  0  0
 29 56  1  0  0  0
 29 57  1  0  0  0
 30 58  1  0  0  0
 30 59  1  0  0  0
 30 60  1  0  0  0
 31 32  2  0  0  0
 31 61  1  0  0  0
 32 62  1  0  0  0
M  END
$$$$
