
                    3D
 Schrodinger Suite 2019-4.
 67 70  0  0  1  0            999 V2000
  -18.6738   -0.9503  -26.0707 C   0  0  0  0  0  0
  -18.5664   -2.4727  -26.1569 C   0  0  0  0  0  0
  -17.1444   -2.9222  -26.5418 C   0  0  0  0  0  0
  -19.6097   -3.1253  -27.1028 C   0  0  0  0  0  0
  -20.8356   -3.9367  -26.5960 C   0  0  2  0  0  0
  -20.7286   -4.4225  -25.2241 N   0  0  0  0  0  0
  -19.6833   -5.0099  -24.6282 C   0  0  0  0  0  0
  -19.5206   -4.8526  -23.4239 O   0  0  0  0  0  0
  -18.6521   -5.7888  -25.4630 C   0  0  2  0  0  0
  -18.7488   -7.2978  -25.2100 C   0  0  0  0  0  0
  -17.3096   -7.8092  -25.3311 C   0  0  0  0  0  0
  -16.5128   -6.5587  -25.0177 C   0  0  0  0  0  0
  -15.3147   -6.5493  -24.7751 O   0  0  0  0  0  0
  -17.3017   -5.4938  -25.0291 N   0  0  0  0  0  0
  -21.2936   -4.9774  -27.6210 C   0  0  0  0  0  0
  -21.5609   -6.1343  -27.3072 O   0  0  0  0  0  0
  -21.3084   -4.5184  -28.8764 N   0  0  0  0  0  0
  -21.4312   -5.2748  -30.1036 C   0  0  1  0  0  0
  -21.9779   -4.3031  -31.1740 C   0  0  0  0  0  0
  -23.4701   -3.9274  -30.9950 C   0  0  2  0  0  0
  -24.0724   -3.4071  -32.3046 C   0  0  0  0  0  0
  -24.4832   -1.9601  -32.0391 C   0  0  0  0  0  0
  -24.3745   -1.7704  -30.6237 N   0  0  0  0  0  0
  -23.7496   -2.7708  -30.0233 C   0  0  0  0  0  0
  -23.4661   -2.7703  -28.8310 O   0  0  0  0  0  0
  -20.0150   -5.7359  -30.5217 C   0  0  0  0  0  0
  -18.9998   -5.2281  -30.0458 O   0  0  0  0  0  0
  -19.8512   -6.8256  -31.5214 C   0  0  0  0  0  0
  -18.6741   -7.3452  -31.8877 N   0  0  0  0  0  0
  -18.8483   -8.2831  -32.8947 C   0  0  0  0  0  0
  -17.8360   -9.0077  -33.5650 C   0  0  0  0  0  0
  -18.1574   -9.9383  -34.5722 C   0  0  0  0  0  0
  -19.5016  -10.1629  -34.9272 C   0  0  0  0  0  0
  -20.5271   -9.4574  -34.2754 C   0  0  0  0  0  0
  -20.2000   -8.5266  -33.2735 C   0  0  0  0  0  0
  -21.2684   -7.5186  -32.3102 S   0  0  0  0  0  0
  -19.6559   -0.5839  -26.3593 H   0  0  0  0  0  0
  -18.5137   -0.6116  -25.0512 H   0  0  0  0  0  0
  -17.9269   -0.4644  -26.6902 H   0  0  0  0  0  0
  -18.7194   -2.7731  -25.1297 H   0  0  0  0  0  0
  -17.1039   -3.8639  -27.0833 H   0  0  0  0  0  0
  -16.6359   -2.1847  -27.1523 H   0  0  0  0  0  0
  -16.5486   -3.1046  -25.6543 H   0  0  0  0  0  0
  -19.0694   -3.7871  -27.7744 H   0  0  0  0  0  0
  -20.0260   -2.3572  -27.7351 H   0  0  0  0  0  0
  -21.6715   -3.2405  -26.5545 H   0  0  0  0  0  0
  -21.4224   -4.0421  -24.5983 H   0  0  0  0  0  0
  -18.7210   -5.6039  -26.5318 H   0  0  0  0  0  0
  -19.4313   -7.7910  -25.9024 H   0  0  0  0  0  0
  -19.0974   -7.4944  -24.1984 H   0  0  0  0  0  0
  -17.0771   -8.1400  -26.3436 H   0  0  0  0  0  0
  -17.0888   -8.6149  -24.6302 H   0  0  0  0  0  0
  -16.9903   -4.5554  -24.8229 H   0  0  0  0  0  0
  -21.1206   -3.5329  -28.9928 H   0  0  0  0  0  0
  -22.0949   -6.1290  -29.9626 H   0  0  0  0  0  0
  -21.8629   -4.7616  -32.1556 H   0  0  0  0  0  0
  -21.3703   -3.3974  -31.2180 H   0  0  0  0  0  0
  -24.0363   -4.8015  -30.6708 H   0  0  0  0  0  0
  -24.9315   -4.0016  -32.6042 H   0  0  0  0  0  0
  -23.3602   -3.4435  -33.1286 H   0  0  0  0  0  0
  -25.4779   -1.7131  -32.4076 H   0  0  0  0  0  0
  -23.7459   -1.2981  -32.4741 H   0  0  0  0  0  0
  -24.6263   -0.9067  -30.1629 H   0  0  0  0  0  0
  -16.8009   -8.8439  -33.3002 H   0  0  0  0  0  0
  -17.3710  -10.4807  -35.0777 H   0  0  0  0  0  0
  -19.7435  -10.8756  -35.7025 H   0  0  0  0  0  0
  -21.5554   -9.6329  -34.5440 H   0  0  0  0  0  0
  1  2  1  0  0  0
  1 37  1  0  0  0
  1 38  1  0  0  0
  1 39  1  0  0  0
  2  3  1  0  0  0
  2  4  1  0  0  0
  2 40  1  0  0  0
  3 41  1  0  0  0
  3 42  1  0  0  0
  3 43  1  0  0  0
  4  5  1  0  0  0
  4 44  1  0  0  0
  4 45  1  0  0  0
  5  6  1  0  0  0
  5 15  1  0  0  0
  5 46  1  0  0  0
  6  7  1  0  0  0
  6 47  1  0  0  0
  7  8  2  0  0  0
  7  9  1  0  0  0
  9 14  1  0  0  0
  9 10  1  0  0  0
  9 48  1  0  0  0
 10 11  1  0  0  0
 10 49  1  0  0  0
 10 50  1  0  0  0
 11 12  1  0  0  0
 11 51  1  0  0  0
 11 52  1  0  0  0
 12 13  2  0  0  0
 12 14  1  0  0  0
 14 53  1  0  0  0
 15 16  2  0  0  0
 15 17  1  0  0  0
 17 18  1  0  0  0
 17 54  1  0  0  0
 18 19  1  0  0  0
 18 26  1  0  0  0
 18 55  1  0  0  0
 19 20  1  0  0  0
 19 56  1  0  0  0
 19 57  1  0  0  0
 20 24  1  0  0  0
 20 21  1  0  0  0
 20 58  1  0  0  0
 21 22  1  0  0  0
 21 59  1  0  0  0
 21 60  1  0  0  0
 22 23  1  0  0  0
 22 61  1  0  0  0
 22 62  1  0  0  0
 23 24  1  0  0  0
 23 63  1  0  0  0
 24 25  2  0  0  0
 26 27  2  0  0  0
 26 28  1  0  0  0
 28 36  1  0  0  0
 28 29  2  0  0  0
 29 30  1  0  0  0
 30 35  2  0  0  0
 30 31  1  0  0  0
 31 32  2  0  0  0
 31 64  1  0  0  0
 32 33  1  0  0  0
 32 65  1  0  0  0
 33 34  2  0  0  0
 33 66  1  0  0  0
 34 35  1  0  0  0
 34 67  1  0  0  0
 35 36  1  0  0  0
M  END
$$$$
