
                    3D
 Schrodinger Suite 2019-4.
 41 42  0  0  1  0            999 V2000
  -17.8156   -8.0855  -26.8015 C   0  0  0  0  0  0
  -17.0696   -8.2702  -25.6412 C   0  0  0  0  0  0
  -16.7187   -7.1704  -24.8643 C   0  0  0  0  0  0
  -17.1251   -5.8881  -25.2229 C   0  0  0  0  0  0
  -17.8695   -5.7026  -26.3850 C   0  0  0  0  0  0
  -18.2123   -6.8026  -27.1856 C   0  0  0  0  0  0
  -18.9422   -6.6306  -28.5215 C   0  0  0  0  0  0
  -19.6789   -5.4104  -28.5894 O   0  0  0  0  0  0
  -20.8266   -5.2777  -27.9046 C   0  0  0  0  0  0
  -21.1068   -3.9278  -27.7326 N   0  0  0  0  0  0
  -22.3113   -3.4755  -26.9914 C   0  0  2  0  0  0
  -22.2700   -3.9025  -25.5148 C   0  0  0  0  0  0
  -20.8903   -4.2175  -24.9085 C   0  0  0  0  0  0
  -20.7990   -3.8141  -23.1860 Cl  0  0  0  0  0  0
  -23.2735   -3.9536  -24.8032 O   0  0  0  0  0  0
  -23.6576   -3.7918  -27.7144 C   0  0  0  0  0  0
  -23.5342   -3.5503  -29.2181 C   0  0  0  0  0  0
  -23.3635   -2.2486  -29.6946 C   0  0  0  0  0  0
  -23.0706   -2.0320  -31.0367 C   0  0  0  0  0  0
  -22.9627   -3.1198  -31.8982 C   0  0  0  0  0  0
  -23.1790   -4.4178  -31.4432 C   0  0  0  0  0  0
  -23.4690   -4.6343  -30.0994 C   0  0  0  0  0  0
  -22.6262   -2.9143  -33.1861 F   0  0  0  0  0  0
  -21.4763   -6.2131  -27.4371 O   0  0  0  0  0  0
  -18.0531   -8.9383  -27.4182 H   0  0  0  0  0  0
  -16.7372   -9.2584  -25.3601 H   0  0  0  0  0  0
  -16.1089   -7.3123  -23.9859 H   0  0  0  0  0  0
  -16.8399   -5.0428  -24.6152 H   0  0  0  0  0  0
  -18.1452   -4.6993  -26.6743 H   0  0  0  0  0  0
  -19.6042   -7.4812  -28.6978 H   0  0  0  0  0  0
  -18.2042   -6.6319  -29.3241 H   0  0  0  0  0  0
  -20.6702   -3.2620  -28.3554 H   0  0  0  0  0  0
  -22.2209   -2.3885  -26.9726 H   0  0  0  0  0  0
  -20.1064   -3.6502  -25.4084 H   0  0  0  0  0  0
  -20.6683   -5.2792  -25.0163 H   0  0  0  0  0  0
  -24.4688   -3.1837  -27.3149 H   0  0  0  0  0  0
  -23.9372   -4.8347  -27.5525 H   0  0  0  0  0  0
  -23.4041   -1.4139  -29.0124 H   0  0  0  0  0  0
  -22.9017   -1.0301  -31.4023 H   0  0  0  0  0  0
  -23.0954   -5.2523  -32.1236 H   0  0  0  0  0  0
  -23.5899   -5.6448  -29.7361 H   0  0  0  0  0  0
  1  6  1  0  0  0
  1  2  2  0  0  0
  1 25  1  0  0  0
  2  3  1  0  0  0
  2 26  1  0  0  0
  3  4  2  0  0  0
  3 27  1  0  0  0
  4  5  1  0  0  0
  4 28  1  0  0  0
  5  6  2  0  0  0
  5 29  1  0  0  0
  6  7  1  0  0  0
  7  8  1  0  0  0
  7 30  1  0  0  0
  7 31  1  0  0  0
  8  9  1  0  0  0
  9 10  1  0  0  0
  9 24  2  0  0  0
 10 11  1  0  0  0
 10 32  1  0  0  0
 11 12  1  0  0  0
 11 16  1  0  0  0
 11 33  1  0  0  0
 12 13  1  0  0  0
 12 15  2  0  0  0
 13 14  1  0  0  0
 13 34  1  0  0  0
 13 35  1  0  0  0
 16 17  1  0  0  0
 16 36  1  0  0  0
 16 37  1  0  0  0
 17 22  1  0  0  0
 17 18  2  0  0  0
 18 19  1  0  0  0
 18 38  1  0  0  0
 19 20  2  0  0  0
 19 39  1  0  0  0
 20 21  1  0  0  0
 20 23  1  0  0  0
 21 22  2  0  0  0
 21 40  1  0  0  0
 22 41  1  0  0  0
M  END
$$$$
