
                    3D
 Schrodinger Suite 2019-4.
 75 77  0  0  1  0            999 V2000
  -26.0226   -5.0979  -21.2624 C   0  0  0  0  0  0
  -25.5095   -3.8447  -21.9739 C   0  0  0  0  0  0
  -25.0289   -4.1371  -23.3273 N   0  0  0  0  0  0
  -26.0645   -4.3687  -24.3444 C   0  0  0  0  0  0
  -26.2520   -3.1291  -25.2285 C   0  0  0  0  0  0
  -23.7159   -4.0794  -23.6317 C   0  0  0  0  0  0
  -22.8827   -3.5008  -22.9299 O   0  0  0  0  0  0
  -23.2548   -4.8688  -24.8547 C   0  0  0  0  0  0
  -21.7422   -5.1032  -24.8893 C   0  0  0  0  0  0
  -20.9391   -3.9622  -25.5495 C   0  0  2  0  0  0
  -21.2742   -3.6723  -26.9487 N   0  0  0  0  0  0
  -21.7765   -4.5043  -27.8752 C   0  0  0  0  0  0
  -22.1221   -5.6641  -27.6488 O   0  0  0  0  0  0
  -21.9080   -3.9587  -29.3051 C   0  0  1  0  0  0
  -21.5789   -5.0363  -30.2459 N   0  0  0  0  0  0
  -20.3388   -5.6661  -30.2528 C   0  0  0  0  0  0
  -19.3166   -5.2494  -29.7082 O   0  0  0  0  0  0
  -20.4528   -6.8674  -30.8327 O   0  0  0  0  0  0
  -19.3929   -7.8134  -30.7089 C   0  0  0  0  0  0
  -19.3806   -8.5909  -29.3971 C   0  0  0  0  0  0
  -20.5404   -8.7042  -28.5976 C   0  0  0  0  0  0
  -20.5295   -9.5044  -27.4392 C   0  0  0  0  0  0
  -19.3632  -10.2058  -27.0805 C   0  0  0  0  0  0
  -18.1933  -10.0689  -27.8519 C   0  0  0  0  0  0
  -18.2020   -9.2618  -29.0058 C   0  0  0  0  0  0
  -23.3038   -3.3210  -29.5741 C   0  0  0  0  0  0
  -24.5208   -4.1696  -29.1696 C   0  0  0  0  0  0
  -23.4544   -2.8155  -31.0184 C   0  0  0  0  0  0
  -19.4197   -3.9860  -25.3006 C   0  0  0  0  0  0
  -18.8192   -2.9525  -25.0308 O   0  0  0  0  0  0
  -18.6373   -5.2511  -25.3407 C   0  0  0  0  0  0
  -19.1100   -6.4773  -25.0983 N   0  0  0  0  0  0
  -18.0669   -7.3782  -24.9722 C   0  0  0  0  0  0
  -18.1634   -8.7287  -24.5722 C   0  0  0  0  0  0
  -17.0189   -9.5431  -24.4759 C   0  0  0  0  0  0
  -15.7534   -9.0142  -24.7809 C   0  0  0  0  0  0
  -15.6335   -7.6676  -25.1639 C   0  0  0  0  0  0
  -16.7732   -6.8546  -25.2397 C   0  0  0  0  0  0
  -16.8894   -5.1367  -25.5974 S   0  0  0  0  0  0
  -26.3181   -4.8658  -20.2396 H   0  0  0  0  0  0
  -26.8900   -5.5256  -21.7642 H   0  0  0  0  0  0
  -25.2509   -5.8670  -21.2145 H   0  0  0  0  0  0
  -24.7075   -3.4497  -21.3551 H   0  0  0  0  0  0
  -26.2721   -3.0725  -21.9875 H   0  0  0  0  0  0
  -27.0048   -4.6265  -23.8627 H   0  0  0  0  0  0
  -25.8528   -5.2388  -24.9649 H   0  0  0  0  0  0
  -27.2459   -3.0971  -25.6635 H   0  0  0  0  0  0
  -26.1497   -2.2077  -24.6567 H   0  0  0  0  0  0
  -25.5264   -3.1159  -26.0394 H   0  0  0  0  0  0
  -23.6066   -4.3780  -25.7598 H   0  0  0  0  0  0
  -23.7307   -5.8492  -24.8239 H   0  0  0  0  0  0
  -21.5612   -6.0611  -25.3690 H   0  0  0  0  0  0
  -21.3758   -5.2472  -23.8774 H   0  0  0  0  0  0
  -21.2923   -3.0757  -25.0299 H   0  0  0  0  0  0
  -21.0383   -2.7415  -27.2637 H   0  0  0  0  0  0
  -21.1587   -3.1834  -29.4277 H   0  0  0  0  0  0
  -22.3362   -5.5278  -30.6972 H   0  0  0  0  0  0
  -18.4263   -7.3336  -30.8501 H   0  0  0  0  0  0
  -19.4958   -8.5322  -31.5218 H   0  0  0  0  0  0
  -21.4530   -8.1984  -28.8767 H   0  0  0  0  0  0
  -21.4228   -9.5960  -26.8394 H   0  0  0  0  0  0
  -19.3591  -10.8349  -26.2028 H   0  0  0  0  0  0
  -17.2902  -10.5877  -27.5647 H   0  0  0  0  0  0
  -17.3047   -9.1772  -29.6022 H   0  0  0  0  0  0
  -23.3509   -2.4330  -28.9440 H   0  0  0  0  0  0
  -25.4477   -3.6447  -29.4021 H   0  0  0  0  0  0
  -24.5379   -5.1179  -29.6968 H   0  0  0  0  0  0
  -24.5423   -4.3787  -28.1001 H   0  0  0  0  0  0
  -24.3966   -2.2835  -31.1544 H   0  0  0  0  0  0
  -22.6534   -2.1214  -31.2669 H   0  0  0  0  0  0
  -23.4287   -3.6307  -31.7416 H   0  0  0  0  0  0
  -19.1312   -9.1442  -24.3406 H   0  0  0  0  0  0
  -17.1131  -10.5758  -24.1760 H   0  0  0  0  0  0
  -14.8721   -9.6346  -24.7130 H   0  0  0  0  0  0
  -14.6621   -7.2464  -25.3580 H   0  0  0  0  0  0
  1  2  1  0  0  0
  1 40  1  0  0  0
  1 41  1  0  0  0
  1 42  1  0  0  0
  2  3  1  0  0  0
  2 43  1  0  0  0
  2 44  1  0  0  0
  3  4  1  0  0  0
  3  6  1  0  0  0
  4  5  1  0  0  0
  4 45  1  0  0  0
  4 46  1  0  0  0
  5 47  1  0  0  0
  5 48  1  0  0  0
  5 49  1  0  0  0
  6  7  2  0  0  0
  6  8  1  0  0  0
  8  9  1  0  0  0
  8 50  1  0  0  0
  8 51  1  0  0  0
  9 10  1  0  0  0
  9 52  1  0  0  0
  9 53  1  0  0  0
 10 11  1  0  0  0
 10 29  1  0  0  0
 10 54  1  0  0  0
 11 12  1  0  0  0
 11 55  1  0  0  0
 12 13  2  0  0  0
 12 14  1  0  0  0
 14 15  1  0  0  0
 14 26  1  0  0  0
 14 56  1  0  0  0
 15 16  1  0  0  0
 15 57  1  0  0  0
 16 17  2  0  0  0
 16 18  1  0  0  0
 18 19  1  0  0  0
 19 20  1  0  0  0
 19 58  1  0  0  0
 19 59  1  0  0  0
 20 25  1  0  0  0
 20 21  2  0  0  0
 21 22  1  0  0  0
 21 60  1  0  0  0
 22 23  2  0  0  0
 22 61  1  0  0  0
 23 24  1  0  0  0
 23 62  1  0  0  0
 24 25  2  0  0  0
 24 63  1  0  0  0
 25 64  1  0  0  0
 26 27  1  0  0  0
 26 28  1  0  0  0
 26 65  1  0  0  0
 27 66  1  0  0  0
 27 67  1  0  0  0
 27 68  1  0  0  0
 28 69  1  0  0  0
 28 70  1  0  0  0
 28 71  1  0  0  0
 29 30  2  0  0  0
 29 31  1  0  0  0
 31 39  1  0  0  0
 31 32  2  0  0  0
 32 33  1  0  0  0
 33 38  2  0  0  0
 33 34  1  0  0  0
 34 35  2  0  0  0
 34 72  1  0  0  0
 35 36  1  0  0  0
 35 73  1  0  0  0
 36 37  2  0  0  0
 36 74  1  0  0  0
 37 38  1  0  0  0
 37 75  1  0  0  0
 38 39  1  0  0  0
M  END
$$$$
