
                    3D
 Schrodinger Suite 2019-4.
 77 78  0  0  1  0            999 V2000
  -13.7541   -8.1006  -24.1480 C   0  0  0  0  0  0
  -14.8198   -7.0195  -24.2777 C   0  0  0  0  0  0
  -15.9712   -7.2664  -23.9246 O   0  0  0  0  0  0
  -14.4091   -5.8216  -24.7238 N   0  0  0  0  0  0
  -15.1658   -4.5823  -24.9585 C   0  0  1  0  0  0
  -14.1578   -3.5492  -25.5238 C   0  0  0  0  0  0
  -14.6259   -2.2226  -25.4337 O   0  0  0  0  0  0
  -16.3821   -4.7052  -25.9069 C   0  0  0  0  0  0
  -16.5968   -3.8221  -26.7238 O   0  0  0  0  0  0
  -17.1507   -5.7881  -25.8337 N   0  0  0  0  0  0
  -18.2016   -6.1279  -26.7805 C   0  0  2  0  0  0
  -19.4470   -5.2358  -26.6726 C   0  0  0  0  0  0
  -19.7300   -4.6541  -25.6247 O   0  0  0  0  0  0
  -20.1675   -5.1878  -27.8012 N   0  0  0  0  0  0
  -21.4765   -4.5708  -27.9743 C   0  0  1  0  0  0
  -21.7743   -4.4876  -29.4899 C   0  0  0  0  0  0
  -22.7485   -3.3877  -29.9633 C   0  0  0  0  0  0
  -24.1963   -3.5302  -29.4367 C   0  0  0  0  0  0
  -25.0848   -2.3742  -29.9405 C   0  0  0  0  0  0
  -25.0711   -2.2668  -31.4804 C   0  0  0  0  0  0
  -23.6358   -2.1941  -32.0354 C   0  0  0  0  0  0
  -22.7734   -3.3510  -31.5097 C   0  0  0  0  0  0
  -22.4718   -5.4564  -27.2004 C   0  0  0  0  0  0
  -22.6259   -6.6221  -27.5658 O   0  0  0  0  0  0
  -23.0301   -4.8984  -26.1094 N   0  0  0  0  0  0
  -23.7165   -5.5217  -24.9518 C   0  0  2  0  0  0
  -22.7233   -5.3423  -23.8188 C   0  0  0  0  0  0
  -22.9995   -5.5789  -22.6436 O   0  0  0  0  0  0
  -24.1127   -7.0246  -25.0847 C   0  0  0  0  0  0
  -25.2452   -7.3445  -26.0351 C   0  0  0  0  0  0
  -25.9483   -6.5058  -26.8740 C   0  0  0  0  0  0
  -26.8818   -7.2934  -27.5232 N   0  0  0  0  0  0
  -26.7220   -8.5385  -27.0755 C   0  0  0  0  0  0
  -25.7516   -8.6422  -26.1750 N   0  0  0  0  0  0
  -18.6058   -7.6091  -26.6040 C   0  0  0  0  0  0
  -19.2484   -7.9170  -25.2454 C   0  0  0  0  0  0
  -17.4235   -8.5637  -26.8757 C   0  0  0  0  0  0
  -12.9286   -7.7524  -23.5283 H   0  0  0  0  0  0
  -14.1733   -8.9931  -23.6839 H   0  0  0  0  0  0
  -13.3640   -8.3797  -25.1241 H   0  0  0  0  0  0
  -13.4597   -5.7860  -25.0645 H   0  0  0  0  0  0
  -15.5425   -4.2431  -23.9923 H   0  0  0  0  0  0
  -13.9784   -3.7582  -26.5737 H   0  0  0  0  0  0
  -13.1869   -3.6097  -25.0322 H   0  0  0  0  0  0
  -15.4703   -2.1579  -25.9050 H   0  0  0  0  0  0
  -16.9151   -6.4876  -25.1330 H   0  0  0  0  0  0
  -17.8260   -5.9939  -27.7937 H   0  0  0  0  0  0
  -19.8530   -5.7386  -28.5850 H   0  0  0  0  0  0
  -21.4300   -3.5632  -27.5527 H   0  0  0  0  0  0
  -22.0998   -5.4586  -29.8682 H   0  0  0  0  0  0
  -20.8250   -4.2915  -29.9930 H   0  0  0  0  0  0
  -22.3704   -2.4224  -29.6164 H   0  0  0  0  0  0
  -24.2092   -3.5521  -28.3477 H   0  0  0  0  0  0
  -24.6148   -4.4915  -29.7390 H   0  0  0  0  0  0
  -24.7247   -1.4328  -29.5242 H   0  0  0  0  0  0
  -26.1032   -2.5052  -29.5756 H   0  0  0  0  0  0
  -25.6404   -1.3934  -31.7999 H   0  0  0  0  0  0
  -25.5751   -3.1335  -31.9090 H   0  0  0  0  0  0
  -23.1843   -1.2411  -31.7550 H   0  0  0  0  0  0
  -23.6485   -2.2237  -33.1234 H   0  0  0  0  0  0
  -23.1256   -4.3057  -31.9038 H   0  0  0  0  0  0
  -21.7596   -3.2459  -31.8996 H   0  0  0  0  0  0
  -22.8439   -3.9122  -25.9850 H   0  0  0  0  0  0
  -24.6209   -4.9554  -24.7249 H   0  0  0  0  0  0
  -21.7237   -5.0049  -24.0920 H   0  0  0  0  0  0
  -24.4419   -7.3973  -24.1131 H   0  0  0  0  0  0
  -23.2540   -7.6449  -25.3480 H   0  0  0  0  0  0
  -25.8555   -5.4455  -27.0564 H   0  0  0  0  0  0
  -27.5421   -6.9796  -28.2224 H   0  0  0  0  0  0
  -27.3206   -9.3739  -27.4138 H   0  0  0  0  0  0
  -19.3626   -7.8220  -27.3592 H   0  0  0  0  0  0
  -19.4258   -8.9877  -25.1451 H   0  0  0  0  0  0
  -18.6148   -7.6154  -24.4111 H   0  0  0  0  0  0
  -20.2117   -7.4214  -25.1249 H   0  0  0  0  0  0
  -17.7061   -9.6052  -26.7236 H   0  0  0  0  0  0
  -17.0468   -8.4596  -27.8941 H   0  0  0  0  0  0
  -16.5817   -8.3752  -26.2127 H   0  0  0  0  0  0
  1  2  1  0  0  0
  1 38  1  0  0  0
  1 39  1  0  0  0
  1 40  1  0  0  0
  2  3  2  0  0  0
  2  4  1  0  0  0
  4  5  1  0  0  0
  4 41  1  0  0  0
  5  6  1  0  0  0
  5  8  1  0  0  0
  5 42  1  0  0  0
  6  7  1  0  0  0
  6 43  1  0  0  0
  6 44  1  0  0  0
  7 45  1  0  0  0
  8  9  2  0  0  0
  8 10  1  0  0  0
 10 11  1  0  0  0
 10 46  1  0  0  0
 11 12  1  0  0  0
 11 35  1  0  0  0
 11 47  1  0  0  0
 12 13  2  0  0  0
 12 14  1  0  0  0
 14 15  1  0  0  0
 14 48  1  0  0  0
 15 16  1  0  0  0
 15 23  1  0  0  0
 15 49  1  0  0  0
 16 17  1  0  0  0
 16 50  1  0  0  0
 16 51  1  0  0  0
 17 22  1  0  0  0
 17 18  1  0  0  0
 17 52  1  0  0  0
 18 19  1  0  0  0
 18 53  1  0  0  0
 18 54  1  0  0  0
 19 20  1  0  0  0
 19 55  1  0  0  0
 19 56  1  0  0  0
 20 21  1  0  0  0
 20 57  1  0  0  0
 20 58  1  0  0  0
 21 22  1  0  0  0
 21 59  1  0  0  0
 21 60  1  0  0  0
 22 61  1  0  0  0
 22 62  1  0  0  0
 23 24  2  0  0  0
 23 25  1  0  0  0
 25 26  1  0  0  0
 25 63  1  0  0  0
 26 27  1  0  0  0
 26 29  1  0  0  0
 26 64  1  0  0  0
 27 28  2  0  0  0
 27 65  1  0  0  0
 29 30  1  0  0  0
 29 66  1  0  0  0
 29 67  1  0  0  0
 30 34  1  0  0  0
 30 31  2  0  0  0
 31 32  1  0  0  0
 31 68  1  0  0  0
 32 33  1  0  0  0
 32 69  1  0  0  0
 33 34  2  0  0  0
 33 70  1  0  0  0
 35 36  1  0  0  0
 35 37  1  0  0  0
 35 71  1  0  0  0
 36 72  1  0  0  0
 36 73  1  0  0  0
 36 74  1  0  0  0
 37 75  1  0  0  0
 37 76  1  0  0  0
 37 77  1  0  0  0
M  END
$$$$
