
                    3D
 Schrodinger Suite 2019-4.
 69 73  0  0  1  0            999 V2000
  -21.1080   -3.3190  -22.6933 O   0  5  0  0  0  0
  -21.4116   -4.0893  -23.6729 C   0  0  0  0  0  0
  -20.6681   -4.4913  -24.7210 C   0  0  0  0  0  0
  -19.2049   -4.0981  -24.9775 C   0  0  0  0  0  0
  -18.1148   -5.1623  -25.0520 C   0  0  0  0  0  0
  -16.7495   -4.9741  -25.2708 C   0  0  0  0  0  0
  -16.1819   -6.2204  -25.2649 N   0  0  0  0  0  0
  -17.2246   -7.0755  -25.0339 C   0  0  0  0  0  0
  -18.3752   -6.4564  -24.8959 N   0  0  0  0  0  0
  -21.6650   -4.6260  -27.0090 C   0  0  0  0  0  0
  -22.5097   -5.5345  -27.9419 C   0  0  2  0  0  0
  -22.0226   -5.4332  -29.4026 C   0  0  0  0  0  0
  -22.4016   -4.1060  -30.0600 C   0  0  1  0  0  0
  -21.8327   -3.9965  -31.4943 C   0  0  0  0  0  0
  -22.2421   -2.6695  -32.1574 C   0  0  0  0  0  0
  -23.7771   -2.5033  -32.1460 C   0  0  0  0  0  0
  -24.3810   -2.7219  -30.7491 C   0  0  0  0  0  0
  -23.9371   -4.0613  -30.1183 C   0  0  2  0  0  0
  -24.5820   -4.1930  -28.7201 C   0  0  0  0  0  0
  -23.9924   -5.2847  -27.9006 N   0  0  0  0  0  0
  -24.7429   -6.0103  -27.0035 C   0  0  0  0  0  0
  -24.2154   -6.9145  -26.3434 O   0  0  0  0  0  0
  -26.2385   -5.7706  -26.7559 C   0  0  0  0  0  0
  -26.8686   -4.5174  -26.8699 C   0  0  0  0  0  0
  -28.2111   -4.3433  -26.5520 C   0  0  0  0  0  0
  -28.9536   -5.4145  -26.0743 C   0  0  0  0  0  0
  -28.3692   -6.6731  -25.8884 C   0  0  0  0  0  0
  -29.1480   -7.7990  -25.2781 C   0  0  0  0  0  0
  -28.5007   -8.8082  -24.5484 C   0  0  0  0  0  0
  -29.2186   -9.8616  -23.9886 C   0  0  0  0  0  0
  -30.5975   -9.9213  -24.1574 C   0  0  0  0  0  0
  -31.2621   -8.9298  -24.8708 C   0  0  0  0  0  0
  -30.5434   -7.8691  -25.4130 C   0  0  0  0  0  0
  -27.0225   -6.8304  -26.2611 C   0  0  0  0  0  0
  -21.3089   -5.3675  -25.7058 N   0  3  0  0  0  0
  -22.4149   -4.4906  -23.6898 H   0  0  0  0  0  0
  -18.9091   -3.3784  -24.2130 H   0  0  0  0  0  0
  -19.1856   -3.5150  -25.8986 H   0  0  0  0  0  0
  -16.1566   -4.0874  -25.4367 H   0  0  0  0  0  0
  -15.2067   -6.4713  -25.4271 H   0  0  0  0  0  0
  -17.0488   -8.1402  -24.9934 H   0  0  0  0  0  0
  -22.1796   -3.7068  -26.7244 H   0  0  0  0  0  0
  -20.6938   -4.3703  -27.4328 H   0  0  0  0  0  0
  -22.3072   -6.5741  -27.6755 H   0  0  0  0  0  0
  -22.4247   -6.2615  -29.9894 H   0  0  0  0  0  0
  -20.9441   -5.5922  -29.4570 H   0  0  0  0  0  0
  -22.0339   -3.2710  -29.4607 H   0  0  0  0  0  0
  -22.1844   -4.8332  -32.0989 H   0  0  0  0  0  0
  -20.7484   -4.1061  -31.4786 H   0  0  0  0  0  0
  -21.8660   -2.6269  -33.1817 H   0  0  0  0  0  0
  -21.7764   -1.8369  -31.6256 H   0  0  0  0  0  0
  -24.2287   -3.1979  -32.8573 H   0  0  0  0  0  0
  -24.0353   -1.5000  -32.4710 H   0  0  0  0  0  0
  -25.4698   -2.6656  -30.7878 H   0  0  0  0  0  0
  -24.0849   -1.8967  -30.0971 H   0  0  0  0  0  0
  -24.2897   -4.8812  -30.7494 H   0  0  0  0  0  0
  -25.6244   -4.4152  -28.9629 H   0  0  0  0  0  0
  -24.4678   -3.2568  -28.1717 H   0  0  0  0  0  0
  -26.3308   -3.6252  -27.1353 H   0  0  0  0  0  0
  -28.6702   -3.3690  -26.6460 H   0  0  0  0  0  0
  -29.9814   -5.2341  -25.7972 H   0  0  0  0  0  0
  -27.4324   -8.7800  -24.3940 H   0  0  0  0  0  0
  -28.7069  -10.6268  -23.4243 H   0  0  0  0  0  0
  -31.1552  -10.7406  -23.7274 H   0  0  0  0  0  0
  -32.3337   -8.9791  -24.9957 H   0  0  0  0  0  0
  -31.0853   -7.1188  -25.9664 H   0  0  0  0  0  0
  -26.5628   -7.8011  -26.1440 H   0  0  0  0  0  0
  -22.1663   -5.7439  -25.3191 H   0  0  0  0  0  0
  -20.7060   -6.1536  -25.9062 H   0  0  0  0  0  0
  1  2  1  0  0  0
  2  3  2  0  0  0
  2 36  1  0  0  0
  3  4  1  0  0  0
  3 35  1  0  0  0
  4  5  1  0  0  0
  4 37  1  0  0  0
  4 38  1  0  0  0
  5  9  1  0  0  0
  5  6  2  0  0  0
  6  7  1  0  0  0
  6 39  1  0  0  0
  7  8  1  0  0  0
  7 40  1  0  0  0
  8  9  2  0  0  0
  8 41  1  0  0  0
 10 11  1  0  0  0
 10 35  1  0  0  0
 10 42  1  0  0  0
 10 43  1  0  0  0
 11 20  1  0  0  0
 11 12  1  0  0  0
 11 44  1  0  0  0
 12 13  1  0  0  0
 12 45  1  0  0  0
 12 46  1  0  0  0
 13 18  1  0  0  0
 13 14  1  0  0  0
 13 47  1  0  0  0
 14 15  1  0  0  0
 14 48  1  0  0  0
 14 49  1  0  0  0
 15 16  1  0  0  0
 15 50  1  0  0  0
 15 51  1  0  0  0
 16 17  1  0  0  0
 16 52  1  0  0  0
 16 53  1  0  0  0
 17 18  1  0  0  0
 17 54  1  0  0  0
 17 55  1  0  0  0
 18 19  1  0  0  0
 18 56  1  0  0  0
 19 20  1  0  0  0
 19 57  1  0  0  0
 19 58  1  0  0  0
 20 21  1  0  0  0
 21 22  2  0  0  0
 21 23  1  0  0  0
 23 34  1  0  0  0
 23 24  2  0  0  0
 24 25  1  0  0  0
 24 59  1  0  0  0
 25 26  2  0  0  0
 25 60  1  0  0  0
 26 27  1  0  0  0
 26 61  1  0  0  0
 27 28  1  0  0  0
 27 34  2  0  0  0
 28 33  1  0  0  0
 28 29  2  0  0  0
 29 30  1  0  0  0
 29 62  1  0  0  0
 30 31  2  0  0  0
 30 63  1  0  0  0
 31 32  1  0  0  0
 31 64  1  0  0  0
 32 33  2  0  0  0
 32 65  1  0  0  0
 33 66  1  0  0  0
 34 67  1  0  0  0
 35 68  1  0  0  0
 35 69  1  0  0  0
M  CHG  2   1  -1  35   1
M  END
$$$$
