
                    3D
 Schrodinger Suite 2019-4.
 94 94  0  0  1  0            999 V2000
  -19.8037   -9.9955  -28.7294 C   0  0  0  0  0  0
  -20.1646   -8.6822  -29.4355 C   0  0  0  0  0  0
  -19.2320   -8.3123  -30.6146 C   0  0  2  0  0  0
  -17.7816   -8.1214  -30.1313 C   0  0  0  0  0  0
  -19.8166   -7.1338  -31.4479 C   0  0  2  0  0  0
  -18.9630   -6.8183  -32.5841 N   0  0  0  0  0  0
  -19.4494   -6.3923  -33.8039 C   0  0  0  0  0  0
  -20.6359   -6.2626  -34.0995 O   0  0  0  0  0  0
  -18.4203   -6.1879  -34.6392 O   0  0  0  0  0  0
  -18.6575   -6.1007  -36.0377 C   0  0  0  0  0  0
  -18.8260   -7.4797  -36.6480 C   0  0  0  0  0  0
  -17.6992   -8.1759  -37.1262 C   0  0  0  0  0  0
  -17.8356   -9.4848  -37.6265 C   0  0  0  0  0  0
  -19.1028  -10.0991  -37.6561 C   0  0  0  0  0  0
  -20.2348   -9.3997  -37.1955 C   0  0  0  0  0  0
  -20.0963   -8.0921  -36.6946 C   0  0  0  0  0  0
  -19.9776   -5.8628  -30.6117 C   0  0  0  0  0  0
  -19.0070   -5.2892  -30.1174 O   0  0  0  0  0  0
  -21.2369   -5.4536  -30.4358 N   0  0  0  0  0  0
  -21.6254   -4.3481  -29.5839 C   0  0  1  0  0  0
  -22.9888   -3.8355  -30.0505 C   0  0  0  0  0  0
  -22.9436   -3.2447  -31.4654 C   0  0  0  0  0  0
  -24.3716   -3.1079  -31.9393 C   0  0  0  0  0  0
  -24.9171   -3.9821  -32.5937 O   0  0  0  0  0  0
  -24.9538   -2.0231  -31.4623 O   0  0  0  0  0  0
  -26.3667   -1.8961  -31.3696 C   0  0  0  0  0  0
  -26.9665   -2.9895  -30.4834 C   0  0  0  0  0  0
  -27.1092   -1.8848  -32.7126 C   0  0  0  0  0  0
  -26.4771   -0.5717  -30.6462 C   0  0  0  0  0  0
  -21.7529   -4.9129  -28.1710 C   0  0  0  0  0  0
  -22.7876   -5.4608  -27.7844 O   0  0  0  0  0  0
  -20.6709   -4.7553  -27.3968 N   0  0  0  0  0  0
  -20.6591   -4.9795  -25.9614 C   0  0  1  0  0  0
  -19.2224   -4.7845  -25.4496 C   0  0  0  0  0  0
  -21.6139   -3.9660  -25.3176 C   0  0  0  0  0  0
  -21.6898   -2.8202  -25.7555 O   0  0  0  0  0  0
  -22.3682   -4.3848  -24.2976 N   0  0  0  0  0  0
  -23.1917   -3.4887  -23.4870 C   0  0  2  0  0  0
  -22.3081   -2.8178  -22.4516 C   0  0  0  0  0  0
  -21.0854   -2.9059  -22.4789 O   0  0  0  0  0  0
  -24.2676   -4.3112  -22.7621 C   0  0  0  0  0  0
  -25.4583   -4.6154  -23.6866 C   0  0  0  0  0  0
  -26.3949   -3.4002  -23.7862 C   0  0  0  0  0  0
  -26.2340   -5.8486  -23.2156 C   0  0  0  0  0  0
  -20.5605  -10.2500  -27.9867 H   0  0  0  0  0  0
  -19.7463  -10.8222  -29.4377 H   0  0  0  0  0  0
  -18.8493   -9.9281  -28.2069 H   0  0  0  0  0  0
  -20.1792   -7.8832  -28.6930 H   0  0  0  0  0  0
  -21.1873   -8.7663  -29.8049 H   0  0  0  0  0  0
  -19.2197   -9.1702  -31.2875 H   0  0  0  0  0  0
  -17.1136   -7.8148  -30.9330 H   0  0  0  0  0  0
  -17.7341   -7.3863  -29.3314 H   0  0  0  0  0  0
  -17.3709   -9.0498  -29.7360 H   0  0  0  0  0  0
  -20.7948   -7.4470  -31.8181 H   0  0  0  0  0  0
  -17.9584   -6.8344  -32.4706 H   0  0  0  0  0  0
  -17.7968   -5.6165  -36.4987 H   0  0  0  0  0  0
  -19.5244   -5.4754  -36.2581 H   0  0  0  0  0  0
  -16.7273   -7.7092  -37.1059 H   0  0  0  0  0  0
  -16.9687  -10.0162  -37.9906 H   0  0  0  0  0  0
  -19.2082  -11.1028  -38.0409 H   0  0  0  0  0  0
  -21.2093   -9.8643  -37.2234 H   0  0  0  0  0  0
  -20.9670   -7.5666  -36.3353 H   0  0  0  0  0  0
  -21.9829   -6.0004  -30.8469 H   0  0  0  0  0  0
  -20.8935   -3.5383  -29.6125 H   0  0  0  0  0  0
  -23.3499   -3.0720  -29.3589 H   0  0  0  0  0  0
  -23.7198   -4.6470  -30.0142 H   0  0  0  0  0  0
  -22.4104   -3.8978  -32.1566 H   0  0  0  0  0  0
  -22.4429   -2.2759  -31.4758 H   0  0  0  0  0  0
  -27.9132   -2.6809  -30.0404 H   0  0  0  0  0  0
  -27.1493   -3.8841  -31.0663 H   0  0  0  0  0  0
  -26.2819   -3.2650  -29.6882 H   0  0  0  0  0  0
  -28.1014   -1.4700  -32.5700 H   0  0  0  0  0  0
  -26.6088   -1.2813  -33.4539 H   0  0  0  0  0  0
  -27.2357   -2.8805  -33.1349 H   0  0  0  0  0  0
  -27.5162   -0.2617  -30.5869 H   0  0  0  0  0  0
  -26.0742   -0.6858  -29.6529 H   0  0  0  0  0  0
  -25.8879    0.2151  -31.1081 H   0  0  0  0  0  0
  -19.8524   -4.3289  -27.8057 H   0  0  0  0  0  0
  -20.9916   -5.9976  -25.7485 H   0  0  0  0  0  0
  -19.1710   -4.9305  -24.3704 H   0  0  0  0  0  0
  -18.5402   -5.5007  -25.9091 H   0  0  0  0  0  0
  -18.8481   -3.7825  -25.6677 H   0  0  0  0  0  0
  -22.3278   -5.3602  -24.0275 H   0  0  0  0  0  0
  -23.6486   -2.7125  -24.1012 H   0  0  0  0  0  0
  -22.8546   -2.2465  -21.7016 H   0  0  0  0  0  0
  -24.6392   -3.7857  -21.8793 H   0  0  0  0  0  0
  -23.8302   -5.2350  -22.3808 H   0  0  0  0  0  0
  -25.0821   -4.8488  -24.6834 H   0  0  0  0  0  0
  -27.2287   -3.6130  -24.4523 H   0  0  0  0  0  0
  -26.8101   -3.1355  -22.8130 H   0  0  0  0  0  0
  -25.8909   -2.5187  -24.1761 H   0  0  0  0  0  0
  -27.0684   -6.0735  -23.8804 H   0  0  0  0  0  0
  -25.5960   -6.7309  -23.1872 H   0  0  0  0  0  0
  -26.6374   -5.6960  -22.2154 H   0  0  0  0  0  0
  1  2  1  0  0  0
  1 45  1  0  0  0
  1 46  1  0  0  0
  1 47  1  0  0  0
  2  3  1  0  0  0
  2 48  1  0  0  0
  2 49  1  0  0  0
  3  4  1  0  0  0
  3  5  1  0  0  0
  3 50  1  0  0  0
  4 51  1  0  0  0
  4 52  1  0  0  0
  4 53  1  0  0  0
  5  6  1  0  0  0
  5 17  1  0  0  0
  5 54  1  0  0  0
  6  7  1  0  0  0
  6 55  1  0  0  0
  7  8  2  0  0  0
  7  9  1  0  0  0
  9 10  1  0  0  0
 10 11  1  0  0  0
 10 56  1  0  0  0
 10 57  1  0  0  0
 11 16  1  0  0  0
 11 12  2  0  0  0
 12 13  1  0  0  0
 12 58  1  0  0  0
 13 14  2  0  0  0
 13 59  1  0  0  0
 14 15  1  0  0  0
 14 60  1  0  0  0
 15 16  2  0  0  0
 15 61  1  0  0  0
 16 62  1  0  0  0
 17 18  2  0  0  0
 17 19  1  0  0  0
 19 20  1  0  0  0
 19 63  1  0  0  0
 20 21  1  0  0  0
 20 30  1  0  0  0
 20 64  1  0  0  0
 21 22  1  0  0  0
 21 65  1  0  0  0
 21 66  1  0  0  0
 22 23  1  0  0  0
 22 67  1  0  0  0
 22 68  1  0  0  0
 23 24  2  0  0  0
 23 25  1  0  0  0
 25 26  1  0  0  0
 26 27  1  0  0  0
 26 28  1  0  0  0
 26 29  1  0  0  0
 27 69  1  0  0  0
 27 70  1  0  0  0
 27 71  1  0  0  0
 28 72  1  0  0  0
 28 73  1  0  0  0
 28 74  1  0  0  0
 29 75  1  0  0  0
 29 76  1  0  0  0
 29 77  1  0  0  0
 30 31  2  0  0  0
 30 32  1  0  0  0
 32 33  1  0  0  0
 32 78  1  0  0  0
 33 34  1  0  0  0
 33 35  1  0  0  0
 33 79  1  0  0  0
 34 80  1  0  0  0
 34 81  1  0  0  0
 34 82  1  0  0  0
 35 36  2  0  0  0
 35 37  1  0  0  0
 37 38  1  0  0  0
 37 83  1  0  0  0
 38 39  1  0  0  0
 38 41  1  0  0  0
 38 84  1  0  0  0
 39 40  2  0  0  0
 39 85  1  0  0  0
 41 42  1  0  0  0
 41 86  1  0  0  0
 41 87  1  0  0  0
 42 43  1  0  0  0
 42 44  1  0  0  0
 42 88  1  0  0  0
 43 89  1  0  0  0
 43 90  1  0  0  0
 43 91  1  0  0  0
 44 92  1  0  0  0
 44 93  1  0  0  0
 44 94  1  0  0  0
M  END
$$$$
