
                    3D
 Schrodinger Suite 2019-4.
 72 76  0  0  1  0            999 V2000
  -23.0887   -2.1403  -30.4862 C   0  0  0  0  0  0
  -23.2957   -3.6488  -30.2924 C   0  0  0  0  0  0
  -24.6860   -4.0672  -30.7566 C   0  0  0  0  0  0
  -23.0739   -4.0924  -28.8317 C   0  0  0  0  0  0
  -21.6265   -4.5126  -28.5270 C   0  0  2  0  0  0
  -21.2938   -5.6913  -29.3332 N   0  0  0  0  0  0
  -20.0453   -6.1480  -29.5042 C   0  0  0  0  0  0
  -19.0591   -5.5043  -29.1455 O   0  0  0  0  0  0
  -19.8623   -7.5509  -30.1021 C   0  0  2  0  0  0
  -18.5211   -7.6958  -30.8344 C   0  0  0  0  0  0
  -18.8333   -8.7766  -31.7975 C   0  0  0  0  0  0
  -17.9332   -9.5387  -32.5585 C   0  0  0  0  0  0
  -18.4737  -10.5299  -33.4037 C   0  0  0  0  0  0
  -19.8747  -10.7301  -33.4673 C   0  0  0  0  0  0
  -20.7561   -9.9382  -32.6933 C   0  0  0  0  0  0
  -20.2090   -8.9473  -31.8600 C   0  0  0  0  0  0
  -20.8968   -8.0677  -31.0125 N   0  0  0  0  0  0
  -21.5436   -4.9230  -27.0500 C   0  0  0  0  0  0
  -21.9998   -6.0129  -26.6984 O   0  0  0  0  0  0
  -20.9533   -4.0744  -26.1924 N   0  0  0  0  0  0
  -20.6484   -4.4239  -24.7988 C   0  0  1  0  0  0
  -19.1255   -4.2555  -24.5817 C   0  0  0  0  0  0
  -18.2979   -5.2830  -25.3894 C   0  0  2  0  0  0
  -18.6081   -6.7492  -25.0471 C   0  0  0  0  0  0
  -17.2615   -7.4789  -25.0334 C   0  0  0  0  0  0
  -16.2864   -6.4174  -24.9273 N   0  0  0  0  0  0
  -16.7975   -5.2096  -25.1430 C   0  0  0  0  0  0
  -16.1491   -4.1713  -25.1851 O   0  0  0  0  0  0
  -21.4985   -3.5984  -23.8086 C   0  0  0  0  0  0
  -21.0186   -2.9898  -22.8524 O   0  0  0  0  0  0
  -22.9691   -3.5598  -24.0423 C   0  0  0  0  0  0
  -23.6800   -4.5198  -24.6434 N   0  0  0  0  0  0
  -24.9909   -4.1096  -24.8253 C   0  0  0  0  0  0
  -26.0189   -4.8296  -25.4725 C   0  0  0  0  0  0
  -27.3020   -4.2754  -25.6324 C   0  0  0  0  0  0
  -27.5699   -2.9801  -25.1614 C   0  0  0  0  0  0
  -26.5653   -2.2450  -24.5045 C   0  0  0  0  0  0
  -25.2977   -2.8158  -24.3226 C   0  0  0  0  0  0
  -23.8835   -2.1419  -23.5334 S   0  0  0  0  0  0
  -22.0912   -1.8324  -30.1811 H   0  0  0  0  0  0
  -23.2144   -1.8614  -31.5322 H   0  0  0  0  0  0
  -23.8044   -1.5625  -29.9021 H   0  0  0  0  0  0
  -22.5883   -4.1577  -30.9470 H   0  0  0  0  0  0
  -24.7883   -5.1502  -30.7920 H   0  0  0  0  0  0
  -25.4419   -3.6917  -30.0725 H   0  0  0  0  0  0
  -24.8806   -3.6940  -31.7612 H   0  0  0  0  0  0
  -23.7314   -4.9339  -28.6042 H   0  0  0  0  0  0
  -23.3877   -3.2976  -28.1534 H   0  0  0  0  0  0
  -20.9428   -3.6898  -28.7384 H   0  0  0  0  0  0
  -22.0637   -6.2678  -29.6471 H   0  0  0  0  0  0
  -19.8565   -8.2344  -29.2518 H   0  0  0  0  0  0
  -17.6741   -7.9181  -30.1844 H   0  0  0  0  0  0
  -18.3352   -6.8155  -31.4302 H   0  0  0  0  0  0
  -16.8665   -9.3725  -32.4976 H   0  0  0  0  0  0
  -17.8146  -11.1392  -34.0049 H   0  0  0  0  0  0
  -20.2761  -11.4935  -34.1175 H   0  0  0  0  0  0
  -21.8237  -10.0903  -32.7446 H   0  0  0  0  0  0
  -21.7865   -8.3647  -30.6339 H   0  0  0  0  0  0
  -20.6150   -3.1874  -26.5388 H   0  0  0  0  0  0
  -20.8930   -5.4660  -24.5975 H   0  0  0  0  0  0
  -18.8934   -4.3665  -23.5249 H   0  0  0  0  0  0
  -18.8123   -3.2473  -24.8522 H   0  0  0  0  0  0
  -18.4406   -5.1239  -26.4587 H   0  0  0  0  0  0
  -19.3080   -7.1989  -25.7521 H   0  0  0  0  0  0
  -19.0548   -6.8185  -24.0573 H   0  0  0  0  0  0
  -17.0937   -8.0223  -25.9645 H   0  0  0  0  0  0
  -17.1795   -8.1782  -24.2010 H   0  0  0  0  0  0
  -15.2972   -6.5975  -24.8045 H   0  0  0  0  0  0
  -25.8126   -5.8160  -25.8626 H   0  0  0  0  0  0
  -28.0785   -4.8355  -26.1327 H   0  0  0  0  0  0
  -28.5546   -2.5584  -25.3000 H   0  0  0  0  0  0
  -26.7630   -1.2492  -24.1384 H   0  0  0  0  0  0
  1  2  1  0  0  0
  1 40  1  0  0  0
  1 41  1  0  0  0
  1 42  1  0  0  0
  2  3  1  0  0  0
  2  4  1  0  0  0
  2 43  1  0  0  0
  3 44  1  0  0  0
  3 45  1  0  0  0
  3 46  1  0  0  0
  4  5  1  0  0  0
  4 47  1  0  0  0
  4 48  1  0  0  0
  5  6  1  0  0  0
  5 18  1  0  0  0
  5 49  1  0  0  0
  6  7  1  0  0  0
  6 50  1  0  0  0
  7  8  2  0  0  0
  7  9  1  0  0  0
  9 17  1  0  0  0
  9 10  1  0  0  0
  9 51  1  0  0  0
 10 11  1  0  0  0
 10 52  1  0  0  0
 10 53  1  0  0  0
 11 16  1  0  0  0
 11 12  2  0  0  0
 12 13  1  0  0  0
 12 54  1  0  0  0
 13 14  2  0  0  0
 13 55  1  0  0  0
 14 15  1  0  0  0
 14 56  1  0  0  0
 15 16  2  0  0  0
 15 57  1  0  0  0
 16 17  1  0  0  0
 17 58  1  0  0  0
 18 19  2  0  0  0
 18 20  1  0  0  0
 20 21  1  0  0  0
 20 59  1  0  0  0
 21 22  1  0  0  0
 21 29  1  0  0  0
 21 60  1  0  0  0
 22 23  1  0  0  0
 22 61  1  0  0  0
 22 62  1  0  0  0
 23 27  1  0  0  0
 23 24  1  0  0  0
 23 63  1  0  0  0
 24 25  1  0  0  0
 24 64  1  0  0  0
 24 65  1  0  0  0
 25 26  1  0  0  0
 25 66  1  0  0  0
 25 67  1  0  0  0
 26 27  1  0  0  0
 26 68  1  0  0  0
 27 28  2  0  0  0
 29 30  2  0  0  0
 29 31  1  0  0  0
 31 39  1  0  0  0
 31 32  2  0  0  0
 32 33  1  0  0  0
 33 38  2  0  0  0
 33 34  1  0  0  0
 34 35  2  0  0  0
 34 69  1  0  0  0
 35 36  1  0  0  0
 35 70  1  0  0  0
 36 37  2  0  0  0
 36 71  1  0  0  0
 37 38  1  0  0  0
 37 72  1  0  0  0
 38 39  1  0  0  0
M  END
$$$$
