
                    3D
 Schrodinger Suite 2019-4.
 86 89  0  0  1  0            999 V2000
  -20.3275   -5.8892  -32.1664 C   0  0  0  0  0  0
  -19.6205   -6.6501  -31.0337 C   0  0  0  0  0  0
  -19.2189   -8.0661  -31.4951 C   0  0  0  0  0  0
  -20.4447   -6.6906  -29.7273 C   0  0  0  0  0  0
  -20.5082   -5.3561  -28.9233 C   0  0  1  0  0  0
  -21.3290   -4.2960  -29.5303 N   0  0  0  0  0  0
  -22.6100   -4.3854  -29.9260 C   0  0  0  0  0  0
  -23.2148   -5.4434  -30.1005 O   0  0  0  0  0  0
  -23.3388   -3.0316  -30.1210 C   0  0  2  0  0  0
  -24.6108   -2.8774  -29.4059 N   0  0  0  0  0  0
  -25.1465   -3.5212  -28.3520 C   0  0  0  0  0  0
  -24.5842   -4.4132  -27.7195 O   0  0  0  0  0  0
  -26.5376   -3.0509  -27.8982 C   0  0  0  0  0  0
  -27.0165   -2.0537  -28.7978 O   0  0  0  0  0  0
  -28.1334   -1.3108  -28.5113 C   0  0  0  0  0  0
  -28.4913   -0.3397  -29.4528 C   0  0  0  0  0  0
  -29.4991    0.5784  -29.1520 C   0  0  0  0  0  0
  -30.1873    0.4810  -27.9519 C   0  0  0  0  0  0
  -29.8988   -0.5606  -27.0637 C   0  0  0  0  0  0
  -28.8658   -1.4478  -27.3283 C   0  0  0  0  0  0
  -23.6207   -2.7676  -31.6264 C   0  0  0  0  0  0
  -24.6308   -3.7761  -32.2041 C   0  0  0  0  0  0
  -22.3729   -2.6696  -32.5215 C   0  0  0  0  0  0
  -20.9230   -5.5666  -27.4551 C   0  0  0  0  0  0
  -21.3862   -6.6470  -27.0899 O   0  0  0  0  0  0
  -20.7187   -4.5228  -26.6299 N   0  0  0  0  0  0
  -20.9385   -4.5413  -25.1741 C   0  0  2  0  0  0
  -22.0701   -3.5618  -24.7548 C   0  0  0  0  0  0
  -22.4283   -3.4688  -23.2409 C   0  0  1  0  0  0
  -23.5105   -2.4368  -22.9424 C   0  0  0  0  0  0
  -24.2837   -3.0347  -21.7822 C   0  0  0  0  0  0
  -24.0594   -4.4594  -21.9463 N   0  0  0  0  0  0
  -22.9763   -4.7862  -22.6628 C   0  0  0  0  0  0
  -22.4781   -5.9030  -22.7571 O   0  0  0  0  0  0
  -19.5560   -4.2653  -24.5763 C   0  0  0  0  0  0
  -19.3172   -3.2290  -23.9527 O   0  0  0  0  0  0
  -18.5171   -5.2800  -24.7625 C   0  0  0  0  0  0
  -18.7325   -6.5596  -24.9128 N   0  0  0  0  0  0
  -17.5803   -7.2688  -24.9993 C   0  0  0  0  0  0
  -17.5067   -8.6615  -25.1346 C   0  0  0  0  0  0
  -16.2443   -9.2511  -25.2132 C   0  0  0  0  0  0
  -15.0849   -8.4820  -25.1519 C   0  0  0  0  0  0
  -15.1328   -7.0956  -25.0130 C   0  0  0  0  0  0
  -16.3945   -6.4929  -24.9343 C   0  0  0  0  0  0
  -16.8301   -4.8005  -24.7526 S   0  0  0  0  0  0
  -20.2928   -4.8236  -31.9519 H   0  0  0  0  0  0
  -19.8561   -6.0468  -33.1414 H   0  0  0  0  0  0
  -21.3766   -6.1748  -32.2419 H   0  0  0  0  0  0
  -18.6992   -6.1152  -30.8162 H   0  0  0  0  0  0
  -18.1432   -8.2161  -31.3826 H   0  0  0  0  0  0
  -19.7167   -8.8460  -30.9174 H   0  0  0  0  0  0
  -19.4596   -8.2459  -32.5432 H   0  0  0  0  0  0
  -19.9454   -7.4150  -29.0804 H   0  0  0  0  0  0
  -21.4309   -7.1208  -29.9001 H   0  0  0  0  0  0
  -19.4894   -4.9700  -28.8797 H   0  0  0  0  0  0
  -20.9429   -3.3668  -29.4510 H   0  0  0  0  0  0
  -22.6949   -2.2366  -29.7425 H   0  0  0  0  0  0
  -25.2013   -2.1483  -29.7818 H   0  0  0  0  0  0
  -26.4444   -2.6547  -26.8865 H   0  0  0  0  0  0
  -27.2134   -3.9067  -27.8783 H   0  0  0  0  0  0
  -27.9325   -0.2409  -30.3726 H   0  0  0  0  0  0
  -29.7239    1.3823  -29.8340 H   0  0  0  0  0  0
  -30.9460    1.2149  -27.7210 H   0  0  0  0  0  0
  -30.4347   -0.6530  -26.1315 H   0  0  0  0  0  0
  -28.6232   -2.2027  -26.5952 H   0  0  0  0  0  0
  -24.0963   -1.7867  -31.6745 H   0  0  0  0  0  0
  -25.0158   -3.4465  -33.1519 H   0  0  0  0  0  0
  -24.2014   -4.7663  -32.3513 H   0  0  0  0  0  0
  -25.4988   -3.8734  -31.5576 H   0  0  0  0  0  0
  -22.6263   -2.2519  -33.4951 H   0  0  0  0  0  0
  -21.6125   -2.0266  -32.0793 H   0  0  0  0  0  0
  -21.9351   -3.6468  -32.7092 H   0  0  0  0  0  0
  -20.4178   -3.6393  -27.0130 H   0  0  0  0  0  0
  -21.2395   -5.5414  -24.8548 H   0  0  0  0  0  0
  -22.9698   -3.8472  -25.3036 H   0  0  0  0  0  0
  -21.8264   -2.5616  -25.1185 H   0  0  0  0  0  0
  -21.5360   -3.2287  -22.6626 H   0  0  0  0  0  0
  -24.1833   -2.3241  -23.7948 H   0  0  0  0  0  0
  -23.1111   -1.4464  -22.7174 H   0  0  0  0  0  0
  -25.3460   -2.7937  -21.8272 H   0  0  0  0  0  0
  -23.8989   -2.7054  -20.8150 H   0  0  0  0  0  0
  -24.5583   -5.1435  -21.3963 H   0  0  0  0  0  0
  -18.4073   -9.2589  -25.1780 H   0  0  0  0  0  0
  -16.1558  -10.3223  -25.3300 H   0  0  0  0  0  0
  -14.1211   -8.9683  -25.2448 H   0  0  0  0  0  0
  -14.2250   -6.5111  -24.9634 H   0  0  0  0  0  0
  1  2  1  0  0  0
  1 46  1  0  0  0
  1 47  1  0  0  0
  1 48  1  0  0  0
  2  3  1  0  0  0
  2  4  1  0  0  0
  2 49  1  0  0  0
  3 50  1  0  0  0
  3 51  1  0  0  0
  3 52  1  0  0  0
  4  5  1  0  0  0
  4 53  1  0  0  0
  4 54  1  0  0  0
  5  6  1  0  0  0
  5 24  1  0  0  0
  5 55  1  0  0  0
  6  7  1  0  0  0
  6 56  1  0  0  0
  7  8  2  0  0  0
  7  9  1  0  0  0
  9 10  1  0  0  0
  9 21  1  0  0  0
  9 57  1  0  0  0
 10 11  1  0  0  0
 10 58  1  0  0  0
 11 12  2  0  0  0
 11 13  1  0  0  0
 13 14  1  0  0  0
 13 59  1  0  0  0
 13 60  1  0  0  0
 14 15  1  0  0  0
 15 20  1  0  0  0
 15 16  2  0  0  0
 16 17  1  0  0  0
 16 61  1  0  0  0
 17 18  2  0  0  0
 17 62  1  0  0  0
 18 19  1  0  0  0
 18 63  1  0  0  0
 19 20  2  0  0  0
 19 64  1  0  0  0
 20 65  1  0  0  0
 21 22  1  0  0  0
 21 23  1  0  0  0
 21 66  1  0  0  0
 22 67  1  0  0  0
 22 68  1  0  0  0
 22 69  1  0  0  0
 23 70  1  0  0  0
 23 71  1  0  0  0
 23 72  1  0  0  0
 24 25  2  0  0  0
 24 26  1  0  0  0
 26 27  1  0  0  0
 26 73  1  0  0  0
 27 28  1  0  0  0
 27 35  1  0  0  0
 27 74  1  0  0  0
 28 29  1  0  0  0
 28 75  1  0  0  0
 28 76  1  0  0  0
 29 33  1  0  0  0
 29 30  1  0  0  0
 29 77  1  0  0  0
 30 31  1  0  0  0
 30 78  1  0  0  0
 30 79  1  0  0  0
 31 32  1  0  0  0
 31 80  1  0  0  0
 31 81  1  0  0  0
 32 33  1  0  0  0
 32 82  1  0  0  0
 33 34  2  0  0  0
 35 36  2  0  0  0
 35 37  1  0  0  0
 37 45  1  0  0  0
 37 38  2  0  0  0
 38 39  1  0  0  0
 39 44  1  0  0  0
 39 40  2  0  0  0
 40 41  1  0  0  0
 40 83  1  0  0  0
 41 42  2  0  0  0
 41 84  1  0  0  0
 42 43  1  0  0  0
 42 85  1  0  0  0
 43 44  2  0  0  0
 43 86  1  0  0  0
 44 45  1  0  0  0
M  END
$$$$
