
                    3D
 Schrodinger Suite 2019-4.
 75 78  0  0  1  0            999 V2000
  -20.7322   -7.3218  -30.5752 C   0  0  0  0  0  0
  -20.6765   -6.0674  -29.9043 O   0  0  0  0  0  0
  -19.8648   -5.9325  -28.7940 C   0  0  0  0  0  0
  -19.9069   -4.7070  -28.1312 C   0  0  0  0  0  0
  -19.0752   -4.4618  -27.0403 C   0  0  0  0  0  0
  -18.2007   -5.4527  -26.5877 C   0  0  0  0  0  0
  -17.3434   -5.2423  -25.4899 N   0  0  0  0  0  0
  -17.5972   -4.2711  -24.4380 C   0  0  0  0  0  0
  -19.0215   -4.4168  -23.8618 C   0  0  0  0  0  0
  -19.5630   -5.5172  -23.8350 O   0  0  0  0  0  0
  -19.6839   -3.3090  -23.4953 N   0  0  0  0  0  0
  -21.1470   -3.2776  -23.3372 C   0  0  1  0  0  0
  -21.6121   -1.8623  -22.9254 C   0  0  0  0  0  0
  -23.0828   -1.4924  -23.2324 C   0  0  0  0  0  0
  -23.2454    0.0323  -23.2180 C   0  0  0  0  0  0
  -24.0544   -2.2537  -22.3077 C   0  0  0  0  0  0
  -21.8499   -3.7819  -24.6132 C   0  0  0  0  0  0
  -21.6298   -3.2144  -25.6824 O   0  0  0  0  0  0
  -22.6897   -4.8215  -24.4499 N   0  0  0  0  0  0
  -23.4871   -5.4982  -25.4871 C   0  0  1  0  0  0
  -24.2731   -6.6872  -24.8486 C   0  0  0  0  0  0
  -24.8407   -7.8132  -25.7672 C   0  0  2  0  0  0
  -23.8683   -8.4953  -26.7266 C   0  0  0  0  0  0
  -24.7115   -8.8209  -27.9482 C   0  0  0  0  0  0
  -25.8411   -7.9070  -27.8327 N   0  0  0  0  0  0
  -26.0378   -7.3726  -26.6177 C   0  0  0  0  0  0
  -26.9983   -6.7070  -26.2420 O   0  0  0  0  0  0
  -24.4227   -4.4610  -26.1398 C   0  0  0  0  0  0
  -25.1308   -3.7467  -25.4225 O   0  0  0  0  0  0
  -24.4332   -4.2724  -27.5970 C   0  0  0  0  0  0
  -25.1109   -3.3505  -28.2343 N   0  0  0  0  0  0
  -24.8426   -3.3473  -29.5671 C   0  0  0  0  0  0
  -25.4006   -2.4633  -30.5034 C   0  0  0  0  0  0
  -25.0040   -2.5740  -31.8350 C   0  0  0  0  0  0
  -24.0662   -3.5249  -32.2343 C   0  0  0  0  0  0
  -23.5112   -4.4271  -31.3303 C   0  0  0  0  0  0
  -23.9161   -4.3318  -29.9950 C   0  0  0  0  0  0
  -23.4444   -5.2996  -28.6200 S   0  0  0  0  0  0
  -18.2009   -6.6995  -27.2091 C   0  0  0  0  0  0
  -19.0134   -6.9372  -28.3138 C   0  0  0  0  0  0
  -21.4388   -7.2573  -31.4019 H   0  0  0  0  0  0
  -19.7618   -7.5971  -30.9894 H   0  0  0  0  0  0
  -21.0778   -8.1154  -29.9104 H   0  0  0  0  0  0
  -20.5748   -3.9290  -28.4763 H   0  0  0  0  0  0
  -19.1108   -3.4899  -26.5726 H   0  0  0  0  0  0
  -16.3874   -5.5434  -25.6297 H   0  0  0  0  0  0
  -17.4020   -3.2447  -24.7520 H   0  0  0  0  0  0
  -16.9319   -4.4457  -23.5922 H   0  0  0  0  0  0
  -19.2130   -2.4270  -23.6262 H   0  0  0  0  0  0
  -21.4122   -3.9507  -22.5243 H   0  0  0  0  0  0
  -21.0010   -1.1353  -23.4446 H   0  0  0  0  0  0
  -21.4017   -1.6985  -21.8674 H   0  0  0  0  0  0
  -23.3600   -1.7549  -24.2526 H   0  0  0  0  0  0
  -24.2624    0.3369  -23.0350 H   0  0  0  0  0  0
  -22.6013    0.4973  -22.4751 H   0  0  0  0  0  0
  -23.0004    0.4530  -24.1925 H   0  0  0  0  0  0
  -25.0806   -1.9071  -22.4203 H   0  0  0  0  0  0
  -24.0649   -3.3175  -22.5399 H   0  0  0  0  0  0
  -23.7756   -2.1544  -21.2587 H   0  0  0  0  0  0
  -22.7245   -5.2581  -23.5421 H   0  0  0  0  0  0
  -22.7427   -5.9046  -26.1669 H   0  0  0  0  0  0
  -25.0685   -6.3016  -24.2058 H   0  0  0  0  0  0
  -23.5974   -7.1924  -24.1555 H   0  0  0  0  0  0
  -25.2569   -8.5768  -25.1091 H   0  0  0  0  0  0
  -23.4011   -9.3840  -26.2994 H   0  0  0  0  0  0
  -23.0541   -7.8361  -27.0246 H   0  0  0  0  0  0
  -25.0569   -9.8566  -27.9510 H   0  0  0  0  0  0
  -24.1555   -8.6458  -28.8729 H   0  0  0  0  0  0
  -26.5168   -7.7885  -28.5742 H   0  0  0  0  0  0
  -26.1174   -1.7151  -30.2063 H   0  0  0  0  0  0
  -25.4255   -1.9070  -32.5726 H   0  0  0  0  0  0
  -23.7647   -3.5690  -33.2692 H   0  0  0  0  0  0
  -22.7893   -5.1678  -31.6442 H   0  0  0  0  0  0
  -17.5516   -7.4838  -26.8487 H   0  0  0  0  0  0
  -18.9725   -7.9067  -28.7865 H   0  0  0  0  0  0
  1  2  1  0  0  0
  1 41  1  0  0  0
  1 42  1  0  0  0
  1 43  1  0  0  0
  2  3  1  0  0  0
  3 40  1  0  0  0
  3  4  2  0  0  0
  4  5  1  0  0  0
  4 44  1  0  0  0
  5  6  2  0  0  0
  5 45  1  0  0  0
  6  7  1  0  0  0
  6 39  1  0  0  0
  7  8  1  0  0  0
  7 46  1  0  0  0
  8  9  1  0  0  0
  8 47  1  0  0  0
  8 48  1  0  0  0
  9 10  2  0  0  0
  9 11  1  0  0  0
 11 12  1  0  0  0
 11 49  1  0  0  0
 12 13  1  0  0  0
 12 17  1  0  0  0
 12 50  1  0  0  0
 13 14  1  0  0  0
 13 51  1  0  0  0
 13 52  1  0  0  0
 14 15  1  0  0  0
 14 16  1  0  0  0
 14 53  1  0  0  0
 15 54  1  0  0  0
 15 55  1  0  0  0
 15 56  1  0  0  0
 16 57  1  0  0  0
 16 58  1  0  0  0
 16 59  1  0  0  0
 17 18  2  0  0  0
 17 19  1  0  0  0
 19 20  1  0  0  0
 19 60  1  0  0  0
 20 21  1  0  0  0
 20 28  1  0  0  0
 20 61  1  0  0  0
 21 22  1  0  0  0
 21 62  1  0  0  0
 21 63  1  0  0  0
 22 26  1  0  0  0
 22 23  1  0  0  0
 22 64  1  0  0  0
 23 24  1  0  0  0
 23 65  1  0  0  0
 23 66  1  0  0  0
 24 25  1  0  0  0
 24 67  1  0  0  0
 24 68  1  0  0  0
 25 26  1  0  0  0
 25 69  1  0  0  0
 26 27  2  0  0  0
 28 29  2  0  0  0
 28 30  1  0  0  0
 30 38  1  0  0  0
 30 31  2  0  0  0
 31 32  1  0  0  0
 32 37  2  0  0  0
 32 33  1  0  0  0
 33 34  2  0  0  0
 33 70  1  0  0  0
 34 35  1  0  0  0
 34 71  1  0  0  0
 35 36  2  0  0  0
 35 72  1  0  0  0
 36 37  1  0  0  0
 36 73  1  0  0  0
 37 38  1  0  0  0
 39 40  2  0  0  0
 39 74  1  0  0  0
 40 75  1  0  0  0
M  END
$$$$
