
                    3D
 Schrodinger Suite 2019-4.
 73 76  0  0  1  0            999 V2000
  -20.7660   -9.7094  -31.6966 C   0  0  0  0  0  0
  -20.3047   -9.7961  -30.2280 C   0  0  0  0  0  0
  -20.9263  -11.0582  -29.5934 C   0  0  0  0  0  0
  -18.7613   -9.8922  -30.2042 C   0  0  0  0  0  0
  -20.7640   -8.5732  -29.5616 N   0  0  0  0  0  0
  -20.5520   -8.1599  -28.2954 C   0  0  0  0  0  0
  -20.0744   -8.8892  -27.4295 O   0  0  0  0  0  0
  -21.0324   -6.7085  -27.9631 C   0  0  2  0  0  0
  -20.6029   -5.6646  -28.9820 C   0  0  0  0  0  0
  -21.0020   -4.3243  -28.8833 C   0  0  0  0  0  0
  -20.7536   -3.5852  -30.0234 C   0  0  0  0  0  0
  -19.8380   -4.4577  -31.1876 S   0  0  0  0  0  0
  -19.8378   -5.8387  -30.1432 C   0  0  0  0  0  0
  -20.8915   -6.2456  -26.5443 N   0  0  0  0  0  0
  -21.9566   -5.8311  -25.7805 C   0  0  0  0  0  0
  -21.8263   -5.3384  -24.6525 O   0  0  0  0  0  0
  -23.4060   -5.9492  -26.2956 C   0  0  0  0  0  0
  -23.8091   -4.8856  -27.2042 N   0  0  0  0  0  0
  -23.8380   -3.6106  -26.7722 N   0  0  0  0  0  0
  -24.1843   -2.8042  -27.8285 N   0  0  0  0  0  0
  -24.2720   -3.5849  -28.9376 C   0  0  0  0  0  0
  -24.5148   -3.2401  -30.2733 C   0  0  0  0  0  0
  -24.4814   -4.2647  -31.2212 C   0  0  0  0  0  0
  -24.2382   -5.5869  -30.8427 C   0  0  0  0  0  0
  -24.0381   -5.9613  -29.5166 C   0  0  0  0  0  0
  -24.0400   -4.9329  -28.5707 C   0  0  0  0  0  0
  -19.6048   -6.0635  -26.0024 C   0  0  0  0  0  0
  -18.9685   -7.1216  -25.3526 C   0  0  0  0  0  0
  -17.6754   -6.9772  -24.8786 C   0  0  0  0  0  0
  -17.0367   -5.7501  -25.0077 C   0  0  0  0  0  0
  -15.6886   -5.7269  -24.6561 N   0  0  0  0  0  0
  -14.9382   -4.6255  -24.4983 C   0  0  0  0  0  0
  -15.3816   -3.6037  -23.9921 O   0  0  0  0  0  0
  -13.5876   -4.6030  -25.2506 C   0  0  0  0  0  0
  -12.9208   -6.0044  -25.1921 C   0  0  0  0  0  0
  -12.5501   -3.6039  -24.6662 C   0  0  0  0  0  0
  -13.9769   -4.1755  -26.7008 C   0  0  0  0  0  0
  -17.6980   -4.6577  -25.5948 C   0  0  0  0  0  0
  -18.9777   -4.8198  -26.1051 C   0  0  0  0  0  0
  -20.3543   -8.8319  -32.1989 H   0  0  0  0  0  0
  -20.4555  -10.5836  -32.2709 H   0  0  0  0  0  0
  -21.8519   -9.6427  -31.7728 H   0  0  0  0  0  0
  -20.5995  -11.1910  -28.5637 H   0  0  0  0  0  0
  -22.0152  -11.0048  -29.5924 H   0  0  0  0  0  0
  -20.6445  -11.9616  -30.1379 H   0  0  0  0  0  0
  -18.3712   -9.9634  -29.1887 H   0  0  0  0  0  0
  -18.4079  -10.7717  -30.7415 H   0  0  0  0  0  0
  -18.2941   -9.0214  -30.6652 H   0  0  0  0  0  0
  -21.2288   -7.9159  -30.1715 H   0  0  0  0  0  0
  -22.0871   -6.8533  -28.1355 H   0  0  0  0  0  0
  -21.5281   -3.9105  -28.0386 H   0  0  0  0  0  0
  -21.0383   -2.5599  -30.2073 H   0  0  0  0  0  0
  -19.3201   -6.7233  -30.4848 H   0  0  0  0  0  0
  -24.0850   -5.9314  -25.4407 H   0  0  0  0  0  0
  -23.5950   -6.9030  -26.7779 H   0  0  0  0  0  0
  -24.6938   -2.2140  -30.5574 H   0  0  0  0  0  0
  -24.6461   -4.0316  -32.2640 H   0  0  0  0  0  0
  -24.2168   -6.3601  -31.5920 H   0  0  0  0  0  0
  -23.8805   -6.9988  -29.2560 H   0  0  0  0  0  0
  -19.4648   -8.0638  -25.2123 H   0  0  0  0  0  0
  -17.1748   -7.8232  -24.4304 H   0  0  0  0  0  0
  -15.1952   -6.5848  -24.8632 H   0  0  0  0  0  0
  -12.0201   -6.0531  -25.7986 H   0  0  0  0  0  0
  -12.6309   -6.2725  -24.1747 H   0  0  0  0  0  0
  -13.5854   -6.7873  -25.5452 H   0  0  0  0  0  0
  -11.5254   -3.9546  -24.7912 H   0  0  0  0  0  0
  -12.5745   -2.6462  -25.1917 H   0  0  0  0  0  0
  -12.6635   -3.4473  -23.5924 H   0  0  0  0  0  0
  -13.4382   -3.2928  -27.0315 H   0  0  0  0  0  0
  -13.8378   -4.9811  -27.4163 H   0  0  0  0  0  0
  -15.0147   -3.8575  -26.8273 H   0  0  0  0  0  0
  -17.2169   -3.6976  -25.7113 H   0  0  0  0  0  0
  -19.4710   -3.9826  -26.5765 H   0  0  0  0  0  0
  1  2  1  0  0  0
  1 40  1  0  0  0
  1 41  1  0  0  0
  1 42  1  0  0  0
  2  3  1  0  0  0
  2  4  1  0  0  0
  2  5  1  0  0  0
  3 43  1  0  0  0
  3 44  1  0  0  0
  3 45  1  0  0  0
  4 46  1  0  0  0
  4 47  1  0  0  0
  4 48  1  0  0  0
  5  6  1  0  0  0
  5 49  1  0  0  0
  6  7  2  0  0  0
  6  8  1  0  0  0
  8  9  1  0  0  0
  8 14  1  0  0  0
  8 50  1  0  0  0
  9 13  2  0  0  0
  9 10  1  0  0  0
 10 11  2  0  0  0
 10 51  1  0  0  0
 11 12  1  0  0  0
 11 52  1  0  0  0
 12 13  1  0  0  0
 13 53  1  0  0  0
 14 15  1  0  0  0
 14 27  1  0  0  0
 15 16  2  0  0  0
 15 17  1  0  0  0
 17 18  1  0  0  0
 17 54  1  0  0  0
 17 55  1  0  0  0
 18 26  1  0  0  0
 18 19  1  0  0  0
 19 20  2  0  0  0
 20 21  1  0  0  0
 21 26  2  0  0  0
 21 22  1  0  0  0
 22 23  2  0  0  0
 22 56  1  0  0  0
 23 24  1  0  0  0
 23 57  1  0  0  0
 24 25  2  0  0  0
 24 58  1  0  0  0
 25 26  1  0  0  0
 25 59  1  0  0  0
 27 39  1  0  0  0
 27 28  2  0  0  0
 28 29  1  0  0  0
 28 60  1  0  0  0
 29 30  2  0  0  0
 29 61  1  0  0  0
 30 31  1  0  0  0
 30 38  1  0  0  0
 31 32  1  0  0  0
 31 62  1  0  0  0
 32 33  2  0  0  0
 32 34  1  0  0  0
 34 35  1  0  0  0
 34 36  1  0  0  0
 34 37  1  0  0  0
 35 63  1  0  0  0
 35 64  1  0  0  0
 35 65  1  0  0  0
 36 66  1  0  0  0
 36 67  1  0  0  0
 36 68  1  0  0  0
 37 69  1  0  0  0
 37 70  1  0  0  0
 37 71  1  0  0  0
 38 39  2  0  0  0
 38 72  1  0  0  0
 39 73  1  0  0  0
M  END
$$$$
