
                    3D
 Schrodinger Suite 2019-4.
 70 73  0  0  1  0            999 V2000
  -24.6339   -2.8759  -31.6990 C   0  0  0  0  0  0
  -23.2548   -3.1891  -31.0943 C   0  0  0  0  0  0
  -23.3157   -3.7412  -29.6493 C   0  0  2  0  0  0
  -23.9568   -2.6870  -28.7118 C   0  0  0  0  0  0
  -21.9141   -4.2725  -29.1759 C   0  0  2  0  0  0
  -21.5360   -5.4763  -29.9407 N   0  0  0  0  0  0
  -20.2692   -6.0292  -29.8049 C   0  0  0  0  0  0
  -19.2847   -5.4757  -29.3140 O   0  0  0  0  0  0
  -20.3044   -7.2931  -30.2561 O   0  0  0  0  0  0
  -19.1102   -8.0153  -30.5521 C   0  0  0  0  0  0
  -18.8886   -8.0946  -32.0580 C   0  0  0  0  0  0
  -18.0913   -9.1158  -32.5815 C   0  0  0  0  0  0
  -17.8941   -9.2114  -33.9574 C   0  0  0  0  0  0
  -18.4911   -8.2812  -34.8062 C   0  0  0  0  0  0
  -19.2601   -7.2446  -34.2840 C   0  0  0  0  0  0
  -19.4613   -7.1530  -32.9188 C   0  0  0  0  0  0
  -21.9962   -4.6899  -27.6877 C   0  0  0  0  0  0
  -22.7554   -5.6070  -27.3850 O   0  0  0  0  0  0
  -21.1642   -4.0856  -26.8223 N   0  0  0  0  0  0
  -20.9550   -4.5422  -25.4401 C   0  0  2  0  0  0
  -21.7422   -3.7215  -24.3873 C   0  0  0  0  0  0
  -23.2730   -3.6181  -24.6172 C   0  0  2  0  0  0
  -23.9291   -2.6392  -23.6707 C   0  0  0  0  0  0
  -25.3031   -3.2105  -23.4100 C   0  0  0  0  0  0
  -25.1299   -4.6223  -23.6964 N   0  0  0  0  0  0
  -24.0522   -4.9337  -24.4286 C   0  0  0  0  0  0
  -23.7811   -6.0388  -24.8863 O   0  0  0  0  0  0
  -19.4432   -4.4499  -25.2430 C   0  0  0  0  0  0
  -18.9014   -3.3584  -25.0435 O   0  0  0  0  0  0
  -18.6449   -5.6763  -25.3116 C   0  0  0  0  0  0
  -19.1129   -6.8977  -25.3384 N   0  0  0  0  0  0
  -18.1218   -7.8252  -25.3403 C   0  0  0  0  0  0
  -18.3253   -9.2129  -25.3526 C   0  0  0  0  0  0
  -17.2049  -10.0451  -25.3369 C   0  0  0  0  0  0
  -15.9153   -9.5190  -25.3126 C   0  0  0  0  0  0
  -15.6907   -8.1424  -25.3108 C   0  0  0  0  0  0
  -16.8061   -7.2973  -25.3181 C   0  0  0  0  0  0
  -16.8915   -5.5435  -25.3119 S   0  0  0  0  0  0
  -24.6502   -3.0742  -32.7673 H   0  0  0  0  0  0
  -25.4262   -3.4737  -31.2480 H   0  0  0  0  0  0
  -24.8913   -1.8254  -31.5626 H   0  0  0  0  0  0
  -22.6460   -2.2848  -31.1064 H   0  0  0  0  0  0
  -22.7461   -3.8970  -31.7484 H   0  0  0  0  0  0
  -24.0015   -4.5916  -29.6681 H   0  0  0  0  0  0
  -24.2320   -3.1182  -27.7509 H   0  0  0  0  0  0
  -23.2739   -1.8597  -28.5249 H   0  0  0  0  0  0
  -24.8770   -2.2751  -29.1226 H   0  0  0  0  0  0
  -21.1683   -3.4844  -29.3112 H   0  0  0  0  0  0
  -22.2862   -6.0927  -30.2169 H   0  0  0  0  0  0
  -19.2326   -9.0265  -30.1628 H   0  0  0  0  0  0
  -18.2258   -7.5894  -30.0756 H   0  0  0  0  0  0
  -17.6284   -9.8386  -31.9245 H   0  0  0  0  0  0
  -17.2821  -10.0034  -34.3660 H   0  0  0  0  0  0
  -18.3428   -8.3489  -35.8731 H   0  0  0  0  0  0
  -19.7093   -6.4949  -34.9124 H   0  0  0  0  0  0
  -20.0589   -6.3360  -32.5469 H   0  0  0  0  0  0
  -20.5984   -3.3054  -27.1310 H   0  0  0  0  0  0
  -21.2727   -5.5813  -25.3313 H   0  0  0  0  0  0
  -21.3635   -2.6964  -24.3776 H   0  0  0  0  0  0
  -21.5447   -4.1212  -23.3910 H   0  0  0  0  0  0
  -23.4594   -3.2911  -25.6388 H   0  0  0  0  0  0
  -23.9647   -1.6429  -24.1120 H   0  0  0  0  0  0
  -23.3807   -2.5733  -22.7276 H   0  0  0  0  0  0
  -26.0587   -2.7675  -24.0624 H   0  0  0  0  0  0
  -25.6123   -3.0755  -22.3719 H   0  0  0  0  0  0
  -25.8420   -5.3091  -23.4928 H   0  0  0  0  0  0
  -19.3180   -9.6321  -25.3846 H   0  0  0  0  0  0
  -17.3338  -11.1186  -25.3514 H   0  0  0  0  0  0
  -15.0672  -10.1891  -25.3228 H   0  0  0  0  0  0
  -14.6833   -7.7475  -25.3106 H   0  0  0  0  0  0
  1  2  1  0  0  0
  1 39  1  0  0  0
  1 40  1  0  0  0
  1 41  1  0  0  0
  2  3  1  0  0  0
  2 42  1  0  0  0
  2 43  1  0  0  0
  3  4  1  0  0  0
  3  5  1  0  0  0
  3 44  1  0  0  0
  4 45  1  0  0  0
  4 46  1  0  0  0
  4 47  1  0  0  0
  5  6  1  0  0  0
  5 17  1  0  0  0
  5 48  1  0  0  0
  6  7  1  0  0  0
  6 49  1  0  0  0
  7  8  2  0  0  0
  7  9  1  0  0  0
  9 10  1  0  0  0
 10 11  1  0  0  0
 10 50  1  0  0  0
 10 51  1  0  0  0
 11 16  1  0  0  0
 11 12  2  0  0  0
 12 13  1  0  0  0
 12 52  1  0  0  0
 13 14  2  0  0  0
 13 53  1  0  0  0
 14 15  1  0  0  0
 14 54  1  0  0  0
 15 16  2  0  0  0
 15 55  1  0  0  0
 16 56  1  0  0  0
 17 18  2  0  0  0
 17 19  1  0  0  0
 19 20  1  0  0  0
 19 57  1  0  0  0
 20 21  1  0  0  0
 20 28  1  0  0  0
 20 58  1  0  0  0
 21 22  1  0  0  0
 21 59  1  0  0  0
 21 60  1  0  0  0
 22 26  1  0  0  0
 22 23  1  0  0  0
 22 61  1  0  0  0
 23 24  1  0  0  0
 23 62  1  0  0  0
 23 63  1  0  0  0
 24 25  1  0  0  0
 24 64  1  0  0  0
 24 65  1  0  0  0
 25 26  1  0  0  0
 25 66  1  0  0  0
 26 27  2  0  0  0
 28 29  2  0  0  0
 28 30  1  0  0  0
 30 38  1  0  0  0
 30 31  2  0  0  0
 31 32  1  0  0  0
 32 37  1  0  0  0
 32 33  2  0  0  0
 33 34  1  0  0  0
 33 67  1  0  0  0
 34 35  2  0  0  0
 34 68  1  0  0  0
 35 36  1  0  0  0
 35 69  1  0  0  0
 36 37  2  0  0  0
 36 70  1  0  0  0
 37 38  1  0  0  0
M  END
$$$$
