
                    3D
 Schrodinger Suite 2019-4.
 84 85  0  0  1  0            999 V2000
  -24.9054   -2.5493  -30.3699 C   0  0  0  0  0  0
  -23.6984   -2.8535  -29.4655 C   0  0  0  0  0  0
  -22.8372   -1.5907  -29.2658 C   0  0  0  0  0  0
  -22.8932   -4.0378  -30.0418 C   0  0  0  0  0  0
  -21.6998   -4.5716  -29.2047 C   0  0  2  0  0  0
  -21.1433   -5.6857  -29.9691 N   0  0  0  0  0  0
  -19.8478   -5.9275  -30.1981 C   0  0  0  0  0  0
  -18.9315   -5.2873  -29.6833 O   0  0  0  0  0  0
  -19.5365   -7.0759  -31.1937 C   0  0  1  0  0  0
  -19.0930   -6.4580  -32.4541 N   0  0  0  0  0  0
  -19.7502   -6.6818  -33.6516 C   0  0  0  0  0  0
  -20.7839   -7.3308  -33.8084 O   0  0  0  0  0  0
  -19.0611   -6.0848  -34.6451 O   0  0  0  0  0  0
  -19.4814   -6.1772  -36.0070 C   0  0  0  0  0  0
  -19.2232   -7.5665  -36.5802 C   0  0  0  0  0  0
  -20.2925   -8.4373  -36.7983 C   0  0  0  0  0  0
  -20.0616   -9.7026  -37.3265 C   0  0  0  0  0  0
  -18.7611  -10.0899  -37.6409 C   0  0  0  0  0  0
  -17.6934   -9.2218  -37.4320 C   0  0  0  0  0  0
  -17.9196   -7.9570  -36.8950 C   0  0  0  0  0  0
  -18.4121   -8.0014  -30.6096 C   0  0  0  0  0  0
  -17.9694   -9.0883  -31.6095 C   0  0  0  0  0  0
  -18.7797   -8.6711  -29.2726 C   0  0  0  0  0  0
  -22.1173   -5.0617  -27.8050 C   0  0  0  0  0  0
  -23.1249   -5.7617  -27.7029 O   0  0  0  0  0  0
  -21.3407   -4.7168  -26.7579 N   0  0  0  0  0  0
  -21.5569   -5.2005  -25.3764 C   0  0  1  0  0  0
  -20.4984   -6.2009  -24.8466 C   0  0  0  0  0  0
  -19.9676   -7.2786  -25.8242 C   0  0  0  0  0  0
  -18.4955   -7.6338  -25.5537 C   0  0  0  0  0  0
  -18.2702   -8.5879  -24.8096 O   0  0  0  0  0  0
  -17.5093   -6.9780  -26.2169 N   0  0  0  0  0  0
  -16.0907   -7.3079  -25.9867 C   0  0  0  0  0  0
  -15.5064   -6.1752  -25.1083 C   0  0  0  0  0  0
  -15.7378   -4.8860  -25.6786 O   0  0  0  0  0  0
  -17.1134   -4.6045  -25.9287 C   0  0  0  0  0  0
  -17.7132   -5.6728  -26.8595 C   0  0  0  0  0  0
  -21.6316   -3.9622  -24.4890 C   0  0  0  0  0  0
  -20.6282   -3.4329  -23.9959 O   0  0  0  0  0  0
  -22.9846   -3.2489  -24.4081 C   0  0  0  0  0  0
  -23.9911   -4.1129  -24.4048 F   0  0  0  0  0  0
  -23.0569   -2.4881  -23.3142 F   0  0  0  0  0  0
  -23.0918   -2.4907  -25.4797 F   0  0  0  0  0  0
  -25.6053   -3.3862  -30.3866 H   0  0  0  0  0  0
  -25.4546   -1.6823  -30.0083 H   0  0  0  0  0  0
  -24.6019   -2.3452  -31.3986 H   0  0  0  0  0  0
  -24.1015   -3.1361  -28.4942 H   0  0  0  0  0  0
  -22.6047   -1.4467  -28.2092 H   0  0  0  0  0  0
  -21.8956   -1.6547  -29.8113 H   0  0  0  0  0  0
  -23.3417   -0.6852  -29.6113 H   0  0  0  0  0  0
  -22.5307   -3.7576  -31.0331 H   0  0  0  0  0  0
  -23.5902   -4.8623  -30.2114 H   0  0  0  0  0  0
  -20.9575   -3.7773  -29.1009 H   0  0  0  0  0  0
  -21.8354   -6.2927  -30.3979 H   0  0  0  0  0  0
  -20.4386   -7.6819  -31.3292 H   0  0  0  0  0  0
  -18.1924   -5.9940  -32.4604 H   0  0  0  0  0  0
  -18.9269   -5.4478  -36.5979 H   0  0  0  0  0  0
  -20.5344   -5.9060  -36.1088 H   0  0  0  0  0  0
  -21.3024   -8.1391  -36.5556 H   0  0  0  0  0  0
  -20.8863  -10.3796  -37.4918 H   0  0  0  0  0  0
  -18.5810  -11.0735  -38.0481 H   0  0  0  0  0  0
  -16.6917   -9.5316  -37.6847 H   0  0  0  0  0  0
  -17.0914   -7.2827  -36.7337 H   0  0  0  0  0  0
  -17.5204   -7.3987  -30.4086 H   0  0  0  0  0  0
  -17.2088   -9.7401  -31.1774 H   0  0  0  0  0  0
  -18.8119   -9.7111  -31.9120 H   0  0  0  0  0  0
  -17.5373   -8.6527  -32.5123 H   0  0  0  0  0  0
  -17.9928   -9.3463  -28.9332 H   0  0  0  0  0  0
  -18.9173   -7.9316  -28.4898 H   0  0  0  0  0  0
  -19.7001   -9.2496  -29.3552 H   0  0  0  0  0  0
  -20.5080   -4.1687  -26.9203 H   0  0  0  0  0  0
  -22.5075   -5.7338  -25.3169 H   0  0  0  0  0  0
  -20.9823   -6.7175  -24.0170 H   0  0  0  0  0  0
  -19.6528   -5.6802  -24.3872 H   0  0  0  0  0  0
  -20.1151   -6.9999  -26.8648 H   0  0  0  0  0  0
  -20.5738   -8.1799  -25.7290 H   0  0  0  0  0  0
  -15.6342   -7.2682  -26.9757 H   0  0  0  0  0  0
  -15.9074   -8.3213  -25.6270 H   0  0  0  0  0  0
  -14.4359   -6.3215  -24.9878 H   0  0  0  0  0  0
  -15.9378   -6.2077  -24.1072 H   0  0  0  0  0  0
  -17.2072   -3.6315  -26.4069 H   0  0  0  0  0  0
  -17.6604   -4.5396  -24.9857 H   0  0  0  0  0  0
  -18.7088   -5.4642  -27.2378 H   0  0  0  0  0  0
  -17.0975   -5.7197  -27.7567 H   0  0  0  0  0  0
  1  2  1  0  0  0
  1 44  1  0  0  0
  1 45  1  0  0  0
  1 46  1  0  0  0
  2  3  1  0  0  0
  2  4  1  0  0  0
  2 47  1  0  0  0
  3 48  1  0  0  0
  3 49  1  0  0  0
  3 50  1  0  0  0
  4  5  1  0  0  0
  4 51  1  0  0  0
  4 52  1  0  0  0
  5  6  1  0  0  0
  5 24  1  0  0  0
  5 53  1  0  0  0
  6  7  1  0  0  0
  6 54  1  0  0  0
  7  8  2  0  0  0
  7  9  1  0  0  0
  9 10  1  0  0  0
  9 21  1  0  0  0
  9 55  1  0  0  0
 10 11  1  0  0  0
 10 56  1  0  0  0
 11 12  2  0  0  0
 11 13  1  0  0  0
 13 14  1  0  0  0
 14 15  1  0  0  0
 14 57  1  0  0  0
 14 58  1  0  0  0
 15 20  1  0  0  0
 15 16  2  0  0  0
 16 17  1  0  0  0
 16 59  1  0  0  0
 17 18  2  0  0  0
 17 60  1  0  0  0
 18 19  1  0  0  0
 18 61  1  0  0  0
 19 20  2  0  0  0
 19 62  1  0  0  0
 20 63  1  0  0  0
 21 22  1  0  0  0
 21 23  1  0  0  0
 21 64  1  0  0  0
 22 65  1  0  0  0
 22 66  1  0  0  0
 22 67  1  0  0  0
 23 68  1  0  0  0
 23 69  1  0  0  0
 23 70  1  0  0  0
 24 25  2  0  0  0
 24 26  1  0  0  0
 26 27  1  0  0  0
 26 71  1  0  0  0
 27 28  1  0  0  0
 27 38  1  0  0  0
 27 72  1  0  0  0
 28 29  1  0  0  0
 28 73  1  0  0  0
 28 74  1  0  0  0
 29 30  1  0  0  0
 29 75  1  0  0  0
 29 76  1  0  0  0
 30 31  2  0  0  0
 30 32  1  0  0  0
 32 37  1  0  0  0
 32 33  1  0  0  0
 33 34  1  0  0  0
 33 77  1  0  0  0
 33 78  1  0  0  0
 34 35  1  0  0  0
 34 79  1  0  0  0
 34 80  1  0  0  0
 35 36  1  0  0  0
 36 37  1  0  0  0
 36 81  1  0  0  0
 36 82  1  0  0  0
 37 83  1  0  0  0
 37 84  1  0  0  0
 38 39  2  0  0  0
 38 40  1  0  0  0
 40 41  1  0  0  0
 40 42  1  0  0  0
 40 43  1  0  0  0
M  END
$$$$
