
                    3D
 Schrodinger Suite 2019-4.
 31 33  0  0  1  0            999 V2000
  -19.8427   -5.1313  -29.0730 O   0  0  0  0  0  0
  -20.9157   -4.6987  -28.6518 C   0  0  0  0  0  0
  -22.0204   -4.4137  -29.5735 C   0  0  0  0  0  0
  -23.2279   -4.0135  -29.1221 C   0  0  0  0  0  0
  -24.3669   -3.7100  -30.0000 C   0  0  0  0  0  0
  -24.2117   -3.3892  -31.3683 C   0  0  0  0  0  0
  -25.3434   -3.0814  -32.1475 C   0  0  0  0  0  0
  -26.6283   -3.0966  -31.5737 C   0  0  0  0  0  0
  -27.7105   -2.7506  -32.3282 O   0  0  0  0  0  0
  -26.7819   -3.4680  -30.2224 C   0  0  0  0  0  0
  -28.0114   -3.5564  -29.6502 O   0  0  0  0  0  0
  -25.6576   -3.7636  -29.4396 C   0  0  0  0  0  0
  -23.4677   -3.8022  -27.7844 O   0  0  0  0  0  0
  -22.4854   -4.0130  -26.8509 C   0  0  0  0  0  0
  -22.8111   -3.7762  -25.5027 C   0  0  0  0  0  0
  -21.8438   -3.9488  -24.4988 C   0  0  0  0  0  0
  -22.1623   -3.6839  -23.2002 O   0  0  0  0  0  0
  -20.5454   -4.3691  -24.8437 C   0  0  0  0  0  0
  -20.2114   -4.6202  -26.1905 C   0  0  0  0  0  0
  -18.9363   -5.0185  -26.4751 O   0  0  0  0  0  0
  -21.1873   -4.4469  -27.2086 C   0  0  0  0  0  0
  -21.8374   -4.5664  -30.6270 H   0  0  0  0  0  0
  -23.2352   -3.3505  -31.8264 H   0  0  0  0  0  0
  -25.2220   -2.8222  -33.1857 H   0  0  0  0  0  0
  -27.7491   -3.1966  -33.1597 H   0  0  0  0  0  0
  -27.9837   -3.7800  -28.7327 H   0  0  0  0  0  0
  -25.7944   -4.0369  -28.4035 H   0  0  0  0  0  0
  -23.8068   -3.4455  -25.2459 H   0  0  0  0  0  0
  -23.0764   -3.4743  -23.0799 H   0  0  0  0  0  0
  -19.7956   -4.4838  -24.0746 H   0  0  0  0  0  0
  -18.9204   -5.7910  -27.0231 H   0  0  0  0  0  0
  1  2  2  0  0  0
  2 21  1  0  0  0
  2  3  1  0  0  0
  3  4  2  0  0  0
  3 22  1  0  0  0
  4  5  1  0  0  0
  4 13  1  0  0  0
  5 12  1  0  0  0
  5  6  2  0  0  0
  6  7  1  0  0  0
  6 23  1  0  0  0
  7  8  2  0  0  0
  7 24  1  0  0  0
  8  9  1  0  0  0
  8 10  1  0  0  0
  9 25  1  0  0  0
 10 11  1  0  0  0
 10 12  2  0  0  0
 11 26  1  0  0  0
 12 27  1  0  0  0
 13 14  1  0  0  0
 14 21  2  0  0  0
 14 15  1  0  0  0
 15 16  2  0  0  0
 15 28  1  0  0  0
 16 17  1  0  0  0
 16 18  1  0  0  0
 17 29  1  0  0  0
 18 19  2  0  0  0
 18 30  1  0  0  0
 19 20  1  0  0  0
 19 21  1  0  0  0
 20 31  1  0  0  0
M  END
$$$$
