
                    3D
 Schrodinger Suite 2019-4.
 76 79  0  0  1  0            999 V2000
  -23.5959   -4.4356  -23.6349 O   0  0  0  0  0  0
  -22.8436   -3.4680  -23.7073 C   0  0  0  0  0  0
  -23.2515   -2.1119  -23.4789 C   0  0  0  0  0  0
  -22.5552   -1.2790  -22.6819 C   0  0  0  0  0  0
  -22.7152    0.1754  -22.6820 C   0  0  0  0  0  0
  -22.7960    0.8679  -23.8903 C   0  0  0  0  0  0
  -22.7961    2.2515  -23.8892 C   0  0  0  0  0  0
  -22.7963    2.9356  -22.6818 C   0  0  0  0  0  0
  -22.7958    2.2560  -21.4819 C   0  0  0  0  0  0
  -22.6595    0.8812  -21.4862 C   0  0  0  0  0  0
  -21.6018   -3.4956  -24.1979 N   0  0  0  0  0  0
  -21.0125   -4.4844  -25.0949 C   0  0  2  0  0  0
  -19.5302   -4.5885  -24.6414 C   0  0  0  0  0  0
  -18.6458   -5.6916  -25.1921 C   0  0  0  0  0  0
  -17.2459   -5.5070  -25.1695 C   0  0  0  0  0  0
  -16.3960   -6.5569  -25.4817 C   0  0  0  0  0  0
  -16.9141   -7.8004  -25.8128 C   0  0  0  0  0  0
  -18.2873   -8.0094  -25.8048 C   0  0  0  0  0  0
  -19.1550   -6.9753  -25.4828 C   0  0  0  0  0  0
  -21.1705   -3.9108  -26.5316 C   0  0  0  0  0  0
  -21.1952   -2.6888  -26.6821 O   0  0  0  0  0  0
  -21.2827   -4.7602  -27.5700 N   0  0  0  0  0  0
  -21.3697   -4.3143  -28.9813 C   0  0  2  0  0  0
  -22.6938   -3.5734  -29.3372 C   0  0  0  0  0  0
  -22.7690   -3.0302  -30.8066 C   0  0  1  0  0  0
  -23.8764   -3.6779  -31.6297 C   0  0  0  0  0  0
  -25.0723   -2.7911  -31.3583 C   0  0  0  0  0  0
  -24.4568   -1.4964  -31.1302 N   0  0  0  0  0  0
  -23.1483   -1.5370  -30.8352 C   0  0  0  0  0  0
  -22.3964   -0.5800  -30.6827 O   0  0  0  0  0  0
  -21.1254   -5.5606  -29.8374 C   0  0  0  0  0  0
  -21.9812   -6.0923  -30.5534 O   0  0  0  0  0  0
  -19.6457   -6.1282  -29.8011 C   0  0  0  0  0  0
  -18.7961   -5.6079  -29.0815 O   0  0  0  0  0  0
  -19.4656   -7.2094  -30.5814 N   0  0  0  0  0  0
  -18.2866   -8.0723  -30.4848 C   0  0  0  0  0  0
  -17.7451   -8.7316  -31.7425 C   0  0  0  0  0  0
  -16.6376   -9.5715  -31.5902 C   0  0  0  0  0  0
  -16.1512  -10.2895  -32.6730 C   0  0  0  0  0  0
  -16.7729  -10.1623  -33.9100 C   0  0  0  0  0  0
  -17.8548   -9.3021  -34.0837 C   0  0  0  0  0  0
  -18.3416   -8.5773  -32.9991 C   0  0  0  0  0  0
  -24.0908   -1.7768  -24.0726 H   0  0  0  0  0  0
  -21.7576   -1.6552  -22.0559 H   0  0  0  0  0  0
  -22.7960    0.3362  -24.8294 H   0  0  0  0  0  0
  -22.8053    2.7924  -24.8183 H   0  0  0  0  0  0
  -22.7966    4.0145  -22.6671 H   0  0  0  0  0  0
  -22.7917    2.7940  -20.5510 H   0  0  0  0  0  0
  -22.5562    0.3532  -20.5497 H   0  0  0  0  0  0
  -21.1161   -2.6124  -24.2314 H   0  0  0  0  0  0
  -21.5279   -5.4395  -24.9893 H   0  0  0  0  0  0
  -19.4950   -4.7031  -23.5560 H   0  0  0  0  0  0
  -19.0259   -3.6383  -24.8364 H   0  0  0  0  0  0
  -16.8269   -4.5529  -24.8836 H   0  0  0  0  0  0
  -15.3245   -6.4103  -25.4663 H   0  0  0  0  0  0
  -16.2391   -8.6085  -26.0566 H   0  0  0  0  0  0
  -18.6846   -8.9901  -26.0177 H   0  0  0  0  0  0
  -20.2136   -7.1808  -25.4321 H   0  0  0  0  0  0
  -21.2396   -5.7568  -27.4080 H   0  0  0  0  0  0
  -20.5560   -3.6098  -29.1716 H   0  0  0  0  0  0
  -22.8308   -2.7591  -28.6212 H   0  0  0  0  0  0
  -23.5396   -4.2301  -29.1230 H   0  0  0  0  0  0
  -21.8228   -3.1488  -31.3354 H   0  0  0  0  0  0
  -24.0737   -4.7242  -31.3911 H   0  0  0  0  0  0
  -23.6200   -3.6451  -32.6911 H   0  0  0  0  0  0
  -25.6003   -3.0975  -30.4556 H   0  0  0  0  0  0
  -25.7565   -2.7614  -32.2066 H   0  0  0  0  0  0
  -24.9909   -0.6402  -31.0858 H   0  0  0  0  0  0
  -20.2565   -7.5561  -31.1031 H   0  0  0  0  0  0
  -18.5949   -8.9187  -29.8818 H   0  0  0  0  0  0
  -17.4636   -7.6006  -29.9451 H   0  0  0  0  0  0
  -16.1656   -9.6852  -30.6246 H   0  0  0  0  0  0
  -15.2983  -10.9433  -32.5511 H   0  0  0  0  0  0
  -16.4013  -10.7351  -34.7446 H   0  0  0  0  0  0
  -18.3189   -9.2085  -35.0555 H   0  0  0  0  0  0
  -19.1906   -7.9244  -33.1376 H   0  0  0  0  0  0
  1  2  2  0  0  0
  2  3  1  0  0  0
  2 11  1  0  0  0
  3  4  2  0  0  0
  3 43  1  0  0  0
  4  5  1  0  0  0
  4 44  1  0  0  0
  5 10  1  0  0  0
  5  6  2  0  0  0
  6  7  1  0  0  0
  6 45  1  0  0  0
  7  8  2  0  0  0
  7 46  1  0  0  0
  8  9  1  0  0  0
  8 47  1  0  0  0
  9 10  2  0  0  0
  9 48  1  0  0  0
 10 49  1  0  0  0
 11 12  1  0  0  0
 11 50  1  0  0  0
 12 13  1  0  0  0
 12 20  1  0  0  0
 12 51  1  0  0  0
 13 14  1  0  0  0
 13 52  1  0  0  0
 13 53  1  0  0  0
 14 19  1  0  0  0
 14 15  2  0  0  0
 15 16  1  0  0  0
 15 54  1  0  0  0
 16 17  2  0  0  0
 16 55  1  0  0  0
 17 18  1  0  0  0
 17 56  1  0  0  0
 18 19  2  0  0  0
 18 57  1  0  0  0
 19 58  1  0  0  0
 20 21  2  0  0  0
 20 22  1  0  0  0
 22 23  1  0  0  0
 22 59  1  0  0  0
 23 24  1  0  0  0
 23 31  1  0  0  0
 23 60  1  0  0  0
 24 25  1  0  0  0
 24 61  1  0  0  0
 24 62  1  0  0  0
 25 29  1  0  0  0
 25 26  1  0  0  0
 25 63  1  0  0  0
 26 27  1  0  0  0
 26 64  1  0  0  0
 26 65  1  0  0  0
 27 28  1  0  0  0
 27 66  1  0  0  0
 27 67  1  0  0  0
 28 29  1  0  0  0
 28 68  1  0  0  0
 29 30  2  0  0  0
 31 32  2  0  0  0
 31 33  1  0  0  0
 33 34  2  0  0  0
 33 35  1  0  0  0
 35 36  1  0  0  0
 35 69  1  0  0  0
 36 37  1  0  0  0
 36 70  1  0  0  0
 36 71  1  0  0  0
 37 42  1  0  0  0
 37 38  2  0  0  0
 38 39  1  0  0  0
 38 72  1  0  0  0
 39 40  2  0  0  0
 39 73  1  0  0  0
 40 41  1  0  0  0
 40 74  1  0  0  0
 41 42  2  0  0  0
 41 75  1  0  0  0
 42 76  1  0  0  0
M  END
$$$$
