
                    3D
 Schrodinger Suite 2019-4.
101101  0  0  1  0            999 V2000
  -28.5170   -8.1201  -19.8032 C   0  0  0  0  0  0
  -29.2057   -8.3337  -21.1530 C   0  0  0  0  0  0
  -28.1810   -8.4556  -22.2918 C   0  0  0  0  0  0
  -27.3842   -7.2328  -22.4439 N   0  0  0  0  0  0
  -27.9523   -6.2262  -23.3627 C   0  0  0  0  0  0
  -27.9962   -6.7372  -24.8166 C   0  0  0  0  0  0
  -28.5966   -5.7387  -25.8040 C   0  0  0  0  0  0
  -26.2076   -7.0976  -21.7785 C   0  0  0  0  0  0
  -25.8066   -7.9142  -20.9485 O   0  0  0  0  0  0
  -25.3379   -5.8873  -22.0975 C   0  0  0  0  0  0
  -23.8709   -6.1617  -22.4585 C   0  0  0  0  0  0
  -23.3610   -4.9314  -23.2227 C   0  0  2  0  0  0
  -22.2369   -5.3015  -24.0500 N   0  0  0  0  0  0
  -21.6233   -4.4349  -24.8548 C   0  0  0  0  0  0
  -22.0627   -3.3131  -25.1031 O   0  0  0  0  0  0
  -20.3629   -4.9634  -25.5211 C   0  0  2  0  0  0
  -19.0806   -4.4277  -24.8708 C   0  0  0  0  0  0
  -17.8334   -5.1710  -25.4027 C   0  0  0  0  0  0
  -17.8523   -6.6716  -25.0790 C   0  0  0  0  0  0
  -16.5654   -4.5541  -24.8480 C   0  0  0  0  0  0
  -20.4037   -4.5686  -26.9134 N   0  0  0  0  0  0
  -21.4101   -4.9157  -27.7217 C   0  0  0  0  0  0
  -22.3676   -5.6061  -27.3623 O   0  0  0  0  0  0
  -21.2715   -4.4892  -29.1696 C   0  0  1  0  0  0
  -20.7730   -5.6915  -29.8058 N   0  0  0  0  0  0
  -20.2958   -5.7382  -31.0460 C   0  0  0  0  0  0
  -20.4711   -4.8350  -31.8618 O   0  0  0  0  0  0
  -19.5048   -6.9992  -31.3963 C   0  0  2  0  0  0
  -18.4084   -7.1977  -30.3408 C   0  0  0  0  0  0
  -18.9191   -6.8413  -32.7199 N   0  0  0  0  0  0
  -19.6111   -7.1957  -33.8606 C   0  0  0  0  0  0
  -20.6995   -7.7719  -33.8902 O   0  0  0  0  0  0
  -18.9462   -6.7747  -34.9349 O   0  0  0  0  0  0
  -19.5135   -7.0044  -36.2133 C   0  0  0  0  0  0
  -19.5590   -8.4752  -36.5607 C   0  0  0  0  0  0
  -18.3682   -9.2085  -36.7463 C   0  0  0  0  0  0
  -18.4272  -10.5658  -37.1070 C   0  0  0  0  0  0
  -19.6753  -11.1948  -37.2767 C   0  0  0  0  0  0
  -20.8652  -10.4668  -37.0811 C   0  0  0  0  0  0
  -20.8057   -9.1093  -36.7190 C   0  0  0  0  0  0
  -22.5760   -3.9611  -29.8153 C   0  0  0  0  0  0
  -23.1501   -2.7155  -29.1130 C   0  0  0  0  0  0
  -23.6325   -5.0768  -29.8318 C   0  0  0  0  0  0
  -22.8951   -3.8349  -22.2908 C   0  0  0  0  0  0
  -21.7194   -3.5407  -22.1171 O   0  0  0  0  0  0
  -23.9881   -2.9409  -21.8075 C   0  0  0  0  0  0
  -23.5797   -2.3074  -20.7093 F   0  0  0  0  0  0
  -24.3416   -2.0852  -22.7644 F   0  0  0  0  0  0
  -25.0075   -3.7342  -21.5099 F   0  0  0  0  0  0
  -29.2390   -8.0836  -18.9907 H   0  0  0  0  0  0
  -27.8121   -8.9217  -19.5838 H   0  0  0  0  0  0
  -27.9639   -7.1811  -19.7921 H   0  0  0  0  0  0
  -29.8914   -7.5072  -21.3422 H   0  0  0  0  0  0
  -29.8162   -9.2343  -21.0993 H   0  0  0  0  0  0
  -28.6956   -8.7076  -23.2191 H   0  0  0  0  0  0
  -27.5255   -9.3085  -22.1042 H   0  0  0  0  0  0
  -27.3613   -5.3099  -23.3391 H   0  0  0  0  0  0
  -28.9397   -5.9075  -23.0318 H   0  0  0  0  0  0
  -28.5556   -7.6654  -24.8864 H   0  0  0  0  0  0
  -26.9882   -6.9740  -25.1522 H   0  0  0  0  0  0
  -28.6833   -6.1959  -26.7871 H   0  0  0  0  0  0
  -29.5926   -5.4141  -25.5113 H   0  0  0  0  0  0
  -27.9599   -4.8597  -25.9028 H   0  0  0  0  0  0
  -25.3440   -5.2461  -21.2210 H   0  0  0  0  0  0
  -25.8057   -5.3448  -22.9194 H   0  0  0  0  0  0
  -23.7702   -7.0695  -23.0555 H   0  0  0  0  0  0
  -23.3037   -6.3206  -21.5407 H   0  0  0  0  0  0
  -24.1693   -4.5352  -23.8397 H   0  0  0  0  0  0
  -21.8476   -6.2256  -23.9343 H   0  0  0  0  0  0
  -20.3692   -6.0526  -25.4610 H   0  0  0  0  0  0
  -19.1307   -4.5279  -23.7848 H   0  0  0  0  0  0
  -18.9917   -3.3592  -25.0684 H   0  0  0  0  0  0
  -17.7828   -5.0609  -26.4878 H   0  0  0  0  0  0
  -16.9446   -7.1602  -25.4347 H   0  0  0  0  0  0
  -17.9191   -6.8448  -24.0067 H   0  0  0  0  0  0
  -18.6902   -7.1834  -25.5492 H   0  0  0  0  0  0
  -15.6723   -5.0716  -25.1894 H   0  0  0  0  0  0
  -16.4933   -3.5191  -25.1752 H   0  0  0  0  0  0
  -16.5771   -4.6038  -23.7592 H   0  0  0  0  0  0
  -19.6538   -3.9940  -27.2717 H   0  0  0  0  0  0
  -20.5175   -3.6998  -29.2224 H   0  0  0  0  0  0
  -20.6301   -6.4933  -29.2072 H   0  0  0  0  0  0
  -20.1679   -7.8674  -31.3922 H   0  0  0  0  0  0
  -17.6898   -7.9609  -30.6418 H   0  0  0  0  0  0
  -17.8701   -6.2771  -30.1479 H   0  0  0  0  0  0
  -18.8376   -7.5065  -29.3875 H   0  0  0  0  0  0
  -18.0551   -6.3255  -32.8325 H   0  0  0  0  0  0
  -18.9205   -6.4981  -36.9654 H   0  0  0  0  0  0
  -20.5117   -6.5708  -36.2868 H   0  0  0  0  0  0
  -17.4049   -8.7451  -36.6234 H   0  0  0  0  0  0
  -17.5139  -11.1209  -37.2564 H   0  0  0  0  0  0
  -19.7212  -12.2367  -37.5584 H   0  0  0  0  0  0
  -21.8241  -10.9476  -37.2096 H   0  0  0  0  0  0
  -21.7160   -8.5499  -36.5716 H   0  0  0  0  0  0
  -22.3665   -3.6797  -30.8487 H   0  0  0  0  0  0
  -24.0964   -2.4167  -29.5624 H   0  0  0  0  0  0
  -23.3348   -2.9026  -28.0544 H   0  0  0  0  0  0
  -22.4788   -1.8599  -29.1935 H   0  0  0  0  0  0
  -24.5161   -4.7806  -30.3897 H   0  0  0  0  0  0
  -23.2558   -5.9934  -30.2791 H   0  0  0  0  0  0
  -23.9475   -5.3260  -28.8177 H   0  0  0  0  0  0
  1  2  1  0  0  0
  1 50  1  0  0  0
  1 51  1  0  0  0
  1 52  1  0  0  0
  2  3  1  0  0  0
  2 53  1  0  0  0
  2 54  1  0  0  0
  3  4  1  0  0  0
  3 55  1  0  0  0
  3 56  1  0  0  0
  4  5  1  0  0  0
  4  8  1  0  0  0
  5  6  1  0  0  0
  5 57  1  0  0  0
  5 58  1  0  0  0
  6  7  1  0  0  0
  6 59  1  0  0  0
  6 60  1  0  0  0
  7 61  1  0  0  0
  7 62  1  0  0  0
  7 63  1  0  0  0
  8  9  2  0  0  0
  8 10  1  0  0  0
 10 11  1  0  0  0
 10 64  1  0  0  0
 10 65  1  0  0  0
 11 12  1  0  0  0
 11 66  1  0  0  0
 11 67  1  0  0  0
 12 13  1  0  0  0
 12 44  1  0  0  0
 12 68  1  0  0  0
 13 14  1  0  0  0
 13 69  1  0  0  0
 14 15  2  0  0  0
 14 16  1  0  0  0
 16 17  1  0  0  0
 16 21  1  0  0  0
 16 70  1  0  0  0
 17 18  1  0  0  0
 17 71  1  0  0  0
 17 72  1  0  0  0
 18 19  1  0  0  0
 18 20  1  0  0  0
 18 73  1  0  0  0
 19 74  1  0  0  0
 19 75  1  0  0  0
 19 76  1  0  0  0
 20 77  1  0  0  0
 20 78  1  0  0  0
 20 79  1  0  0  0
 21 22  1  0  0  0
 21 80  1  0  0  0
 22 23  2  0  0  0
 22 24  1  0  0  0
 24 25  1  0  0  0
 24 41  1  0  0  0
 24 81  1  0  0  0
 25 26  1  0  0  0
 25 82  1  0  0  0
 26 27  2  0  0  0
 26 28  1  0  0  0
 28 29  1  0  0  0
 28 30  1  0  0  0
 28 83  1  0  0  0
 29 84  1  0  0  0
 29 85  1  0  0  0
 29 86  1  0  0  0
 30 31  1  0  0  0
 30 87  1  0  0  0
 31 32  2  0  0  0
 31 33  1  0  0  0
 33 34  1  0  0  0
 34 35  1  0  0  0
 34 88  1  0  0  0
 34 89  1  0  0  0
 35 40  1  0  0  0
 35 36  2  0  0  0
 36 37  1  0  0  0
 36 90  1  0  0  0
 37 38  2  0  0  0
 37 91  1  0  0  0
 38 39  1  0  0  0
 38 92  1  0  0  0
 39 40  2  0  0  0
 39 93  1  0  0  0
 40 94  1  0  0  0
 41 42  1  0  0  0
 41 43  1  0  0  0
 41 95  1  0  0  0
 42 96  1  0  0  0
 42 97  1  0  0  0
 42 98  1  0  0  0
 43 99  1  0  0  0
 43100  1  0  0  0
 43101  1  0  0  0
 44 45  2  0  0  0
 44 46  1  0  0  0
 46 47  1  0  0  0
 46 48  1  0  0  0
 46 49  1  0  0  0
M  END
$$$$
