
                    3D
 Schrodinger Suite 2019-4.
 70 73  0  0  1  0            999 V2000
  -22.4519   -2.3179  -30.9504 C   0  0  0  0  0  0
  -23.4155   -3.2982  -30.2681 C   0  0  0  0  0  0
  -24.8043   -2.6691  -30.1995 C   0  0  0  0  0  0
  -22.9649   -3.7422  -28.8583 C   0  0  0  0  0  0
  -21.5228   -4.2803  -28.7527 C   0  0  2  0  0  0
  -21.2981   -5.3803  -29.6937 N   0  0  0  0  0  0
  -20.0359   -5.8926  -29.9423 C   0  0  0  0  0  0
  -18.9727   -5.3833  -29.5949 O   0  0  0  0  0  0
  -20.1500   -7.1024  -30.5044 O   0  0  0  0  0  0
  -18.9988   -7.9362  -30.6177 C   0  0  0  0  0  0
  -18.5561   -8.6134  -29.3222 C   0  0  0  0  0  0
  -17.3353   -9.3192  -29.3011 C   0  0  0  0  0  0
  -16.9495  -10.0425  -28.1548 C   0  0  0  0  0  0
  -17.7897  -10.0800  -27.0262 C   0  0  0  0  0  0
  -18.9932   -9.3526  -27.0281 C   0  0  0  0  0  0
  -19.3624   -8.6053  -28.1623 C   0  0  0  0  0  0
  -21.2766   -4.7996  -27.3261 C   0  0  0  0  0  0
  -21.5733   -5.9630  -27.0406 O   0  0  0  0  0  0
  -20.7286   -3.9493  -26.4412 N   0  0  0  0  0  0
  -20.2942   -4.3451  -25.0958 C   0  0  1  0  0  0
  -18.7687   -4.1370  -24.9792 C   0  0  0  0  0  0
  -17.9892   -5.2953  -25.6203 C   0  0  2  0  0  0
  -18.2689   -6.6519  -24.9574 C   0  0  0  0  0  0
  -16.9230   -7.3764  -24.9032 C   0  0  0  0  0  0
  -15.9567   -6.3141  -25.0278 N   0  0  0  0  0  0
  -16.4861   -5.1716  -25.4469 C   0  0  0  0  0  0
  -15.8550   -4.1529  -25.6959 O   0  0  0  0  0  0
  -21.0741   -3.6295  -23.9846 C   0  0  0  0  0  0
  -20.5290   -2.9778  -23.0978 O   0  0  0  0  0  0
  -22.5444   -3.8225  -23.9449 C   0  0  0  0  0  0
  -23.2194   -4.6567  -24.7390 N   0  0  0  0  0  0
  -24.5441   -4.7186  -24.3543 C   0  0  0  0  0  0
  -25.5367   -5.5550  -24.9089 C   0  0  0  0  0  0
  -26.8460   -5.5526  -24.4008 C   0  0  0  0  0  0
  -27.1715   -4.7198  -23.3190 C   0  0  0  0  0  0
  -26.2063   -3.8664  -22.7540 C   0  0  0  0  0  0
  -24.9038   -3.8711  -23.2685 C   0  0  0  0  0  0
  -23.4983   -2.9694  -22.7248 S   0  0  0  0  0  0
  -21.5215   -2.8180  -31.2102 H   0  0  0  0  0  0
  -22.8698   -1.9362  -31.8820 H   0  0  0  0  0  0
  -22.2251   -1.4629  -30.3128 H   0  0  0  0  0  0
  -23.4896   -4.1860  -30.8975 H   0  0  0  0  0  0
  -25.4936   -3.3116  -29.6593 H   0  0  0  0  0  0
  -24.7743   -1.7143  -29.6799 H   0  0  0  0  0  0
  -25.1980   -2.4869  -31.1993 H   0  0  0  0  0  0
  -23.6649   -4.4944  -28.4890 H   0  0  0  0  0  0
  -23.0621   -2.8940  -28.1778 H   0  0  0  0  0  0
  -20.8175   -3.4796  -28.9732 H   0  0  0  0  0  0
  -22.0831   -5.9324  -30.0069 H   0  0  0  0  0  0
  -18.1652   -7.3797  -31.0410 H   0  0  0  0  0  0
  -19.2310   -8.7218  -31.3366 H   0  0  0  0  0  0
  -16.6947   -9.3199  -30.1718 H   0  0  0  0  0  0
  -16.0107  -10.5769  -28.1457 H   0  0  0  0  0  0
  -17.4995  -10.6458  -26.1530 H   0  0  0  0  0  0
  -19.6347   -9.3707  -26.1601 H   0  0  0  0  0  0
  -20.2925   -8.0638  -28.1479 H   0  0  0  0  0  0
  -20.5399   -3.0012  -26.7366 H   0  0  0  0  0  0
  -20.5057   -5.4005  -24.9275 H   0  0  0  0  0  0
  -18.4595   -4.0718  -23.9355 H   0  0  0  0  0  0
  -18.4860   -3.1870  -25.4345 H   0  0  0  0  0  0
  -18.1934   -5.3515  -26.6908 H   0  0  0  0  0  0
  -19.0329   -7.2126  -25.4896 H   0  0  0  0  0  0
  -18.6359   -6.5071  -23.9427 H   0  0  0  0  0  0
  -16.7850   -8.0366  -25.7552 H   0  0  0  0  0  0
  -16.7919   -7.9518  -23.9877 H   0  0  0  0  0  0
  -14.9640   -6.4649  -24.8986 H   0  0  0  0  0  0
  -25.2799   -6.2096  -25.7293 H   0  0  0  0  0  0
  -27.5971   -6.1993  -24.8315 H   0  0  0  0  0  0
  -28.1686   -4.7565  -22.9226 H   0  0  0  0  0  0
  -26.4526   -3.2332  -21.9157 H   0  0  0  0  0  0
  1  2  1  0  0  0
  1 39  1  0  0  0
  1 40  1  0  0  0
  1 41  1  0  0  0
  2  3  1  0  0  0
  2  4  1  0  0  0
  2 42  1  0  0  0
  3 43  1  0  0  0
  3 44  1  0  0  0
  3 45  1  0  0  0
  4  5  1  0  0  0
  4 46  1  0  0  0
  4 47  1  0  0  0
  5  6  1  0  0  0
  5 17  1  0  0  0
  5 48  1  0  0  0
  6  7  1  0  0  0
  6 49  1  0  0  0
  7  8  2  0  0  0
  7  9  1  0  0  0
  9 10  1  0  0  0
 10 11  1  0  0  0
 10 50  1  0  0  0
 10 51  1  0  0  0
 11 16  1  0  0  0
 11 12  2  0  0  0
 12 13  1  0  0  0
 12 52  1  0  0  0
 13 14  2  0  0  0
 13 53  1  0  0  0
 14 15  1  0  0  0
 14 54  1  0  0  0
 15 16  2  0  0  0
 15 55  1  0  0  0
 16 56  1  0  0  0
 17 18  2  0  0  0
 17 19  1  0  0  0
 19 20  1  0  0  0
 19 57  1  0  0  0
 20 21  1  0  0  0
 20 28  1  0  0  0
 20 58  1  0  0  0
 21 22  1  0  0  0
 21 59  1  0  0  0
 21 60  1  0  0  0
 22 26  1  0  0  0
 22 23  1  0  0  0
 22 61  1  0  0  0
 23 24  1  0  0  0
 23 62  1  0  0  0
 23 63  1  0  0  0
 24 25  1  0  0  0
 24 64  1  0  0  0
 24 65  1  0  0  0
 25 26  1  0  0  0
 25 66  1  0  0  0
 26 27  2  0  0  0
 28 29  2  0  0  0
 28 30  1  0  0  0
 30 38  1  0  0  0
 30 31  2  0  0  0
 31 32  1  0  0  0
 32 37  2  0  0  0
 32 33  1  0  0  0
 33 34  2  0  0  0
 33 67  1  0  0  0
 34 35  1  0  0  0
 34 68  1  0  0  0
 35 36  2  0  0  0
 35 69  1  0  0  0
 36 37  1  0  0  0
 36 70  1  0  0  0
 37 38  1  0  0  0
M  END
$$$$
