
                    3D
 Schrodinger Suite 2019-4.
 89 90  0  0  1  0            999 V2000
  -25.0177   -1.6807  -31.2864 C   0  0  0  0  0  0
  -23.8024   -2.0898  -30.4349 C   0  0  0  0  0  0
  -22.9105   -0.8831  -30.0702 C   0  0  0  0  0  0
  -23.0201   -3.2124  -31.1565 C   0  0  0  0  0  0
  -21.8509   -3.8629  -30.3807 C   0  0  2  0  0  0
  -21.4051   -5.0251  -31.1420 N   0  0  0  0  0  0
  -20.2437   -5.6800  -30.9993 C   0  0  0  0  0  0
  -19.3159   -5.2919  -30.2889 O   0  0  0  0  0  0
  -20.1148   -6.9794  -31.8347 C   0  0  1  0  0  0
  -19.0053   -6.8646  -32.7931 N   0  0  0  0  0  0
  -19.2151   -6.2515  -34.0168 C   0  0  0  0  0  0
  -20.2671   -5.7370  -34.3925 O   0  0  0  0  0  0
  -18.1024   -6.3509  -34.7688 O   0  0  0  0  0  0
  -18.1847   -6.3123  -36.1936 C   0  0  0  0  0  0
  -18.6162   -7.6755  -36.7234 C   0  0  0  0  0  0
  -17.6501   -8.5863  -37.1540 C   0  0  0  0  0  0
  -18.0336   -9.8503  -37.5961 C   0  0  0  0  0  0
  -19.3828  -10.1977  -37.6033 C   0  0  0  0  0  0
  -20.3535   -9.2929  -37.1785 C   0  0  0  0  0  0
  -19.9696   -8.0286  -36.7419 C   0  0  0  0  0  0
  -19.9682   -8.2408  -30.9187 C   0  0  0  0  0  0
  -18.8158   -8.2293  -29.8939 C   0  0  0  0  0  0
  -19.9224   -9.5374  -31.7522 C   0  0  0  0  0  0
  -22.2597   -4.3054  -28.9699 C   0  0  0  0  0  0
  -22.9123   -5.3369  -28.8175 O   0  0  0  0  0  0
  -21.8698   -3.5199  -27.9579 N   0  0  0  0  0  0
  -22.0701   -3.8631  -26.5443 C   0  0  1  0  0  0
  -20.7652   -4.4202  -25.9170 C   0  0  0  0  0  0
  -20.2900   -5.7398  -26.5830 C   0  0  0  0  0  0
  -19.1283   -6.3718  -25.7973 C   0  0  0  0  0  0
  -19.4037   -6.9193  -24.7420 O   0  0  0  0  0  0
  -17.8503   -6.3216  -26.2262 N   0  0  0  0  0  0
  -17.4254   -5.9847  -27.5688 C   0  0  0  0  0  0
  -16.7108   -6.5695  -25.3310 C   0  0  0  0  0  0
  -15.8871   -5.3046  -25.1619 C   0  0  0  0  0  0
  -16.5064   -4.1267  -24.7423 C   0  0  0  0  0  0
  -15.7922   -2.9371  -24.7420 C   0  0  0  0  0  0
  -14.4602   -2.9366  -25.1422 C   0  0  0  0  0  0
  -13.8245   -4.1137  -25.5108 C   0  0  0  0  0  0
  -14.5466   -5.2992  -25.5419 C   0  0  0  0  0  0
  -22.6076   -2.6158  -25.8424 C   0  0  0  0  0  0
  -22.6047   -1.4854  -26.3441 O   0  0  0  0  0  0
  -23.1168   -2.8015  -24.4029 C   0  0  0  0  0  0
  -22.0926   -2.9468  -23.5619 F   0  0  0  0  0  0
  -23.8049   -1.7372  -24.0245 F   0  0  0  0  0  0
  -23.9300   -3.8495  -24.3418 F   0  0  0  0  0  0
  -25.8610   -2.3541  -31.1420 H   0  0  0  0  0  0
  -25.3653   -0.6674  -31.0802 H   0  0  0  0  0  0
  -24.7773   -1.7372  -32.3419 H   0  0  0  0  0  0
  -24.2049   -2.4821  -29.5010 H   0  0  0  0  0  0
  -22.7293   -0.8464  -28.9969 H   0  0  0  0  0  0
  -21.9372   -0.9267  -30.5584 H   0  0  0  0  0  0
  -23.3605    0.0707  -30.3409 H   0  0  0  0  0  0
  -22.6427   -2.8379  -32.1095 H   0  0  0  0  0  0
  -23.7368   -3.9969  -31.4100 H   0  0  0  0  0  0
  -21.0249   -3.1547  -30.3077 H   0  0  0  0  0  0
  -22.1211   -5.4603  -31.7042 H   0  0  0  0  0  0
  -21.0468   -7.1297  -32.3869 H   0  0  0  0  0  0
  -18.0542   -7.0092  -32.4768 H   0  0  0  0  0  0
  -17.2038   -6.0600  -36.5994 H   0  0  0  0  0  0
  -18.8690   -5.5380  -36.5448 H   0  0  0  0  0  0
  -16.6049   -8.3195  -37.1426 H   0  0  0  0  0  0
  -17.2878  -10.5594  -37.9250 H   0  0  0  0  0  0
  -19.6816  -11.1794  -37.9388 H   0  0  0  0  0  0
  -21.3990   -9.5671  -37.1853 H   0  0  0  0  0  0
  -20.7249   -7.3275  -36.4145 H   0  0  0  0  0  0
  -20.8880   -8.3148  -30.3337 H   0  0  0  0  0  0
  -18.6588   -9.2147  -29.4526 H   0  0  0  0  0  0
  -17.8759   -7.9113  -30.3463 H   0  0  0  0  0  0
  -19.0457   -7.5566  -29.0697 H   0  0  0  0  0  0
  -19.9489  -10.4210  -31.1132 H   0  0  0  0  0  0
  -20.7762   -9.6011  -32.4270 H   0  0  0  0  0  0
  -19.0184   -9.5953  -32.3598 H   0  0  0  0  0  0
  -21.3264   -2.6842  -28.1475 H   0  0  0  0  0  0
  -22.8382   -4.6354  -26.4449 H   0  0  0  0  0  0
  -20.9207   -4.6060  -24.8541 H   0  0  0  0  0  0
  -19.9732   -3.6727  -26.0029 H   0  0  0  0  0  0
  -20.0475   -5.5754  -27.6266 H   0  0  0  0  0  0
  -21.1016   -6.4704  -26.5754 H   0  0  0  0  0  0
  -16.6550   -5.2157  -27.5486 H   0  0  0  0  0  0
  -17.0075   -6.9069  -27.9648 H   0  0  0  0  0  0
  -18.1961   -5.6396  -28.2413 H   0  0  0  0  0  0
  -16.0896   -7.3659  -25.7452 H   0  0  0  0  0  0
  -17.0198   -6.9089  -24.3425 H   0  0  0  0  0  0
  -17.5456   -4.1262  -24.4481 H   0  0  0  0  0  0
  -16.2631   -2.0213  -24.4142 H   0  0  0  0  0  0
  -13.9072   -2.0090  -25.1409 H   0  0  0  0  0  0
  -12.7816   -4.0990  -25.7685 H   0  0  0  0  0  0
  -14.0671   -6.2089  -25.8689 H   0  0  0  0  0  0
  1  2  1  0  0  0
  1 47  1  0  0  0
  1 48  1  0  0  0
  1 49  1  0  0  0
  2  3  1  0  0  0
  2  4  1  0  0  0
  2 50  1  0  0  0
  3 51  1  0  0  0
  3 52  1  0  0  0
  3 53  1  0  0  0
  4  5  1  0  0  0
  4 54  1  0  0  0
  4 55  1  0  0  0
  5  6  1  0  0  0
  5 24  1  0  0  0
  5 56  1  0  0  0
  6  7  1  0  0  0
  6 57  1  0  0  0
  7  8  2  0  0  0
  7  9  1  0  0  0
  9 10  1  0  0  0
  9 21  1  0  0  0
  9 58  1  0  0  0
 10 11  1  0  0  0
 10 59  1  0  0  0
 11 12  2  0  0  0
 11 13  1  0  0  0
 13 14  1  0  0  0
 14 15  1  0  0  0
 14 60  1  0  0  0
 14 61  1  0  0  0
 15 20  1  0  0  0
 15 16  2  0  0  0
 16 17  1  0  0  0
 16 62  1  0  0  0
 17 18  2  0  0  0
 17 63  1  0  0  0
 18 19  1  0  0  0
 18 64  1  0  0  0
 19 20  2  0  0  0
 19 65  1  0  0  0
 20 66  1  0  0  0
 21 22  1  0  0  0
 21 23  1  0  0  0
 21 67  1  0  0  0
 22 68  1  0  0  0
 22 69  1  0  0  0
 22 70  1  0  0  0
 23 71  1  0  0  0
 23 72  1  0  0  0
 23 73  1  0  0  0
 24 25  2  0  0  0
 24 26  1  0  0  0
 26 27  1  0  0  0
 26 74  1  0  0  0
 27 28  1  0  0  0
 27 41  1  0  0  0
 27 75  1  0  0  0
 28 29  1  0  0  0
 28 76  1  0  0  0
 28 77  1  0  0  0
 29 30  1  0  0  0
 29 78  1  0  0  0
 29 79  1  0  0  0
 30 31  2  0  0  0
 30 32  1  0  0  0
 32 33  1  0  0  0
 32 34  1  0  0  0
 33 80  1  0  0  0
 33 81  1  0  0  0
 33 82  1  0  0  0
 34 35  1  0  0  0
 34 83  1  0  0  0
 34 84  1  0  0  0
 35 40  1  0  0  0
 35 36  2  0  0  0
 36 37  1  0  0  0
 36 85  1  0  0  0
 37 38  2  0  0  0
 37 86  1  0  0  0
 38 39  1  0  0  0
 38 87  1  0  0  0
 39 40  2  0  0  0
 39 88  1  0  0  0
 40 89  1  0  0  0
 41 42  2  0  0  0
 41 43  1  0  0  0
 43 44  1  0  0  0
 43 45  1  0  0  0
 43 46  1  0  0  0
M  END
$$$$
