
                    3D
 Schrodinger Suite 2019-4.
 94 96  0  0  1  0            999 V2000
  -27.3655   -4.5253  -24.2995 C   0  0  0  0  0  0
  -25.8636   -4.3752  -24.5900 C   0  0  0  0  0  0
  -25.0296   -3.7067  -23.5602 N   0  0  0  0  0  0
  -25.6205   -2.5931  -22.8015 C   0  0  0  0  0  0
  -26.0327   -1.4107  -23.6876 C   0  0  0  0  0  0
  -23.7061   -3.9904  -23.4157 C   0  0  0  0  0  0
  -22.9809   -3.4203  -22.5934 O   0  0  0  0  0  0
  -23.0970   -5.0887  -24.3020 C   0  0  0  0  0  0
  -21.5613   -5.1628  -24.3311 C   0  0  0  0  0  0
  -20.8373   -3.9931  -25.0726 C   0  0  2  0  0  0
  -21.0642   -3.8114  -26.5220 N   0  0  0  0  0  0
  -21.5303   -4.6697  -27.4473 C   0  0  0  0  0  0
  -21.8679   -5.8369  -27.2319 O   0  0  0  0  0  0
  -21.6638   -4.0974  -28.8728 C   0  0  2  0  0  0
  -23.1094   -3.5826  -29.0907 C   0  0  0  0  0  0
  -23.3425   -2.8108  -30.4104 C   0  0  0  0  0  0
  -22.6234   -1.4455  -30.4131 C   0  0  0  0  0  0
  -24.8522   -2.6501  -30.6791 C   0  0  0  0  0  0
  -21.3453   -5.1100  -29.8853 N   0  0  0  0  0  0
  -20.1510   -5.7158  -30.0314 C   0  0  0  0  0  0
  -19.1403   -5.4110  -29.3917 O   0  0  0  0  0  0
  -20.1071   -6.8967  -31.0273 C   0  0  1  0  0  0
  -19.2579   -6.5427  -32.1771 N   0  0  0  0  0  0
  -19.8091   -6.4738  -33.4461 C   0  0  0  0  0  0
  -21.0008   -6.6113  -33.7257 O   0  0  0  0  0  0
  -18.8447   -6.2108  -34.3482 O   0  0  0  0  0  0
  -19.1191   -6.1988  -35.7533 C   0  0  0  0  0  0
  -19.1662   -7.6118  -36.3295 C   0  0  0  0  0  0
  -20.3445   -8.3601  -36.2699 C   0  0  0  0  0  0
  -20.3737   -9.6597  -36.7664 C   0  0  0  0  0  0
  -19.2187  -10.2115  -37.3182 C   0  0  0  0  0  0
  -18.0424   -9.4675  -37.3939 C   0  0  0  0  0  0
  -18.0213   -8.1583  -36.9179 C   0  0  0  0  0  0
  -19.5733   -8.1770  -30.3024 C   0  0  0  0  0  0
  -19.4356   -9.3776  -31.2628 C   0  0  0  0  0  0
  -20.4529   -8.5931  -29.1027 C   0  0  0  0  0  0
  -19.3251   -3.9748  -24.8458 C   0  0  0  0  0  0
  -18.8529   -3.0101  -24.2409 O   0  0  0  0  0  0
  -18.4229   -5.0775  -25.2266 C   0  0  0  0  0  0
  -17.1246   -5.0545  -25.0677 N   0  0  0  0  0  0
  -16.5767   -6.2885  -25.1985 C   0  0  0  0  0  0
  -15.2323   -6.5923  -24.9849 C   0  0  0  0  0  0
  -14.8471   -7.9337  -24.9923 C   0  0  0  0  0  0
  -15.7555   -8.9497  -25.2803 C   0  0  0  0  0  0
  -17.0876   -8.6636  -25.5648 C   0  0  0  0  0  0
  -17.4852   -7.3227  -25.5207 C   0  0  0  0  0  0
  -19.0487   -6.6111  -25.8110 S   0  0  0  0  0  0
  -27.7872   -5.3249  -24.9070 H   0  0  0  0  0  0
  -27.5687   -4.7531  -23.2539 H   0  0  0  0  0  0
  -27.9079   -3.6271  -24.5879 H   0  0  0  0  0  0
  -25.7502   -3.8083  -25.5171 H   0  0  0  0  0  0
  -25.4953   -5.3742  -24.8190 H   0  0  0  0  0  0
  -24.9320   -2.2145  -22.0424 H   0  0  0  0  0  0
  -26.4512   -2.9766  -22.2190 H   0  0  0  0  0  0
  -26.4658   -0.6193  -23.0799 H   0  0  0  0  0  0
  -25.1603   -1.0101  -24.1994 H   0  0  0  0  0  0
  -26.7721   -1.6793  -24.4402 H   0  0  0  0  0  0
  -23.4608   -5.0213  -25.3273 H   0  0  0  0  0  0
  -23.4678   -6.0323  -23.8997 H   0  0  0  0  0  0
  -21.3433   -6.1303  -24.7711 H   0  0  0  0  0  0
  -21.1950   -5.2437  -23.3090 H   0  0  0  0  0  0
  -21.2347   -3.0779  -24.6335 H   0  0  0  0  0  0
  -20.8968   -2.8630  -26.8406 H   0  0  0  0  0  0
  -20.9582   -3.2726  -28.9879 H   0  0  0  0  0  0
  -23.4035   -2.9446  -28.2547 H   0  0  0  0  0  0
  -23.7887   -4.4377  -29.0491 H   0  0  0  0  0  0
  -22.9380   -3.3926  -31.2397 H   0  0  0  0  0  0
  -23.1855   -0.6659  -30.9277 H   0  0  0  0  0  0
  -22.4506   -1.0866  -29.3968 H   0  0  0  0  0  0
  -21.6563   -1.5129  -30.9095 H   0  0  0  0  0  0
  -25.1042   -1.7051  -31.1646 H   0  0  0  0  0  0
  -25.2190   -3.4479  -31.3307 H   0  0  0  0  0  0
  -25.4354   -2.6958  -29.7550 H   0  0  0  0  0  0
  -22.1263   -5.4373  -30.4325 H   0  0  0  0  0  0
  -21.1335   -7.1237  -31.3325 H   0  0  0  0  0  0
  -18.2783   -6.3157  -32.0280 H   0  0  0  0  0  0
  -18.3230   -5.6395  -36.2427 H   0  0  0  0  0  0
  -20.0459   -5.6687  -35.9792 H   0  0  0  0  0  0
  -21.2465   -7.9397  -35.8481 H   0  0  0  0  0  0
  -21.2855  -10.2369  -36.7217 H   0  0  0  0  0  0
  -19.2383  -11.2231  -37.7019 H   0  0  0  0  0  0
  -17.1546   -9.8979  -37.8326 H   0  0  0  0  0  0
  -17.1097   -7.5807  -36.9857 H   0  0  0  0  0  0
  -18.5700   -7.9791  -29.9202 H   0  0  0  0  0  0
  -19.1036  -10.2705  -30.7336 H   0  0  0  0  0  0
  -20.3869   -9.6122  -31.7402 H   0  0  0  0  0  0
  -18.7063   -9.1846  -32.0501 H   0  0  0  0  0  0
  -20.3931   -7.8730  -28.2867 H   0  0  0  0  0  0
  -21.4992   -8.6869  -29.3926 H   0  0  0  0  0  0
  -20.1460   -9.5534  -28.6943 H   0  0  0  0  0  0
  -14.5152   -5.8205  -24.7518 H   0  0  0  0  0  0
  -13.8121   -8.1873  -24.8001 H   0  0  0  0  0  0
  -15.4069   -9.9717  -25.3089 H   0  0  0  0  0  0
  -17.7941   -9.4506  -25.7918 H   0  0  0  0  0  0
  1  2  1  0  0  0
  1 48  1  0  0  0
  1 49  1  0  0  0
  1 50  1  0  0  0
  2  3  1  0  0  0
  2 51  1  0  0  0
  2 52  1  0  0  0
  3  4  1  0  0  0
  3  6  1  0  0  0
  4  5  1  0  0  0
  4 53  1  0  0  0
  4 54  1  0  0  0
  5 55  1  0  0  0
  5 56  1  0  0  0
  5 57  1  0  0  0
  6  7  2  0  0  0
  6  8  1  0  0  0
  8  9  1  0  0  0
  8 58  1  0  0  0
  8 59  1  0  0  0
  9 10  1  0  0  0
  9 60  1  0  0  0
  9 61  1  0  0  0
 10 11  1  0  0  0
 10 37  1  0  0  0
 10 62  1  0  0  0
 11 12  1  0  0  0
 11 63  1  0  0  0
 12 13  2  0  0  0
 12 14  1  0  0  0
 14 15  1  0  0  0
 14 19  1  0  0  0
 14 64  1  0  0  0
 15 16  1  0  0  0
 15 65  1  0  0  0
 15 66  1  0  0  0
 16 17  1  0  0  0
 16 18  1  0  0  0
 16 67  1  0  0  0
 17 68  1  0  0  0
 17 69  1  0  0  0
 17 70  1  0  0  0
 18 71  1  0  0  0
 18 72  1  0  0  0
 18 73  1  0  0  0
 19 20  1  0  0  0
 19 74  1  0  0  0
 20 21  2  0  0  0
 20 22  1  0  0  0
 22 23  1  0  0  0
 22 34  1  0  0  0
 22 75  1  0  0  0
 23 24  1  0  0  0
 23 76  1  0  0  0
 24 25  2  0  0  0
 24 26  1  0  0  0
 26 27  1  0  0  0
 27 28  1  0  0  0
 27 77  1  0  0  0
 27 78  1  0  0  0
 28 33  1  0  0  0
 28 29  2  0  0  0
 29 30  1  0  0  0
 29 79  1  0  0  0
 30 31  2  0  0  0
 30 80  1  0  0  0
 31 32  1  0  0  0
 31 81  1  0  0  0
 32 33  2  0  0  0
 32 82  1  0  0  0
 33 83  1  0  0  0
 34 35  1  0  0  0
 34 36  1  0  0  0
 34 84  1  0  0  0
 35 85  1  0  0  0
 35 86  1  0  0  0
 35 87  1  0  0  0
 36 88  1  0  0  0
 36 89  1  0  0  0
 36 90  1  0  0  0
 37 38  2  0  0  0
 37 39  1  0  0  0
 39 47  1  0  0  0
 39 40  2  0  0  0
 40 41  1  0  0  0
 41 46  2  0  0  0
 41 42  1  0  0  0
 42 43  2  0  0  0
 42 91  1  0  0  0
 43 44  1  0  0  0
 43 92  1  0  0  0
 44 45  2  0  0  0
 44 93  1  0  0  0
 45 46  1  0  0  0
 45 94  1  0  0  0
 46 47  1  0  0  0
M  END
$$$$
