
                    3D
 Schrodinger Suite 2019-4.
 62 64  0  0  1  0            999 V2000
  -18.2711   -9.8135  -28.8119 C   0  0  0  0  0  0
  -19.5561   -9.5593  -27.9969 C   0  0  0  0  0  0
  -20.7780   -9.8956  -28.8814 C   0  0  0  0  0  0
  -19.5326  -10.4741  -26.7502 C   0  0  0  0  0  0
  -19.5531   -8.1433  -27.6155 N   0  0  0  0  0  0
  -20.4600   -7.4732  -26.8783 C   0  0  0  0  0  0
  -21.4851   -7.9753  -26.4284 O   0  0  0  0  0  0
  -20.1298   -5.9824  -26.6031 C   0  0  2  0  0  0
  -18.8175   -5.7313  -25.8635 C   0  0  0  0  0  0
  -18.0281   -6.7450  -25.2873 C   0  0  0  0  0  0
  -16.7843   -6.4107  -24.7582 C   0  0  0  0  0  0
  -16.3290   -5.1344  -24.7473 N   0  0  0  0  0  0
  -17.0922   -4.1571  -25.2530 N   0  0  0  0  0  0
  -18.2993   -4.4369  -25.8041 C   0  0  0  0  0  0
  -21.3036   -5.1137  -26.2316 N   0  0  0  0  0  0
  -21.6341   -4.8001  -24.9273 C   0  0  0  0  0  0
  -20.8832   -4.9570  -23.9639 O   0  0  0  0  0  0
  -22.9239   -4.2094  -24.6358 C   0  0  0  0  0  0
  -24.2166   -4.5438  -25.0340 C   0  0  0  0  0  0
  -25.0856   -3.7308  -24.3098 C   0  0  0  0  0  0
  -24.3006   -2.9568  -23.4815 C   0  0  0  0  0  0
  -22.9946   -3.2793  -23.6417 O   0  0  0  0  0  0
  -22.1287   -4.6888  -27.3051 C   0  0  0  0  0  0
  -22.0514   -3.3563  -27.7106 C   0  0  0  0  0  0
  -22.8206   -2.8984  -28.7739 C   0  0  0  0  0  0
  -23.6905   -3.7612  -29.4565 C   0  0  0  0  0  0
  -24.5336   -3.2892  -30.6688 C   0  0  0  0  0  0
  -24.1264   -4.0929  -31.9233 C   0  0  0  0  0  0
  -24.3473   -1.7862  -31.0050 C   0  0  0  0  0  0
  -26.0413   -3.5201  -30.4011 C   0  0  0  0  0  0
  -23.7750   -5.0950  -29.0288 C   0  0  0  0  0  0
  -23.0017   -5.5603  -27.9666 C   0  0  0  0  0  0
  -17.3740   -9.5827  -28.2348 H   0  0  0  0  0  0
  -18.1913  -10.8551  -29.1283 H   0  0  0  0  0  0
  -18.2358   -9.2012  -29.7138 H   0  0  0  0  0  0
  -21.7195   -9.7534  -28.3496 H   0  0  0  0  0  0
  -20.8106   -9.2678  -29.7729 H   0  0  0  0  0  0
  -20.7553  -10.9334  -29.2148 H   0  0  0  0  0  0
  -20.4335  -10.3686  -26.1471 H   0  0  0  0  0  0
  -19.4540  -11.5249  -27.0282 H   0  0  0  0  0  0
  -18.6862  -10.2435  -26.1038 H   0  0  0  0  0  0
  -18.7413   -7.6290  -27.9243 H   0  0  0  0  0  0
  -19.9325   -5.6721  -27.6314 H   0  0  0  0  0  0
  -18.3426   -7.7791  -25.2630 H   0  0  0  0  0  0
  -16.1236   -7.1625  -24.3484 H   0  0  0  0  0  0
  -18.8431   -3.5994  -26.2168 H   0  0  0  0  0  0
  -24.5011   -5.3051  -25.7463 H   0  0  0  0  0  0
  -26.1655   -3.7224  -24.3607 H   0  0  0  0  0  0
  -24.5225   -2.1993  -22.7465 H   0  0  0  0  0  0
  -21.3901   -2.6665  -27.2055 H   0  0  0  0  0  0
  -22.7138   -1.8600  -29.0496 H   0  0  0  0  0  0
  -24.7503   -3.8174  -32.7711 H   0  0  0  0  0  0
  -23.0866   -3.9119  -32.2014 H   0  0  0  0  0  0
  -24.2432   -5.1677  -31.7837 H   0  0  0  0  0  0
  -24.9595   -1.4919  -31.8590 H   0  0  0  0  0  0
  -24.6384   -1.1455  -30.1721 H   0  0  0  0  0  0
  -23.3139   -1.5513  -31.2668 H   0  0  0  0  0  0
  -26.6588   -3.1077  -31.2008 H   0  0  0  0  0  0
  -26.2842   -4.5810  -30.3466 H   0  0  0  0  0  0
  -26.3617   -3.0504  -29.4704 H   0  0  0  0  0  0
  -24.4375   -5.7895  -29.5260 H   0  0  0  0  0  0
  -23.1007   -6.5918  -27.6632 H   0  0  0  0  0  0
  1  2  1  0  0  0
  1 33  1  0  0  0
  1 34  1  0  0  0
  1 35  1  0  0  0
  2  3  1  0  0  0
  2  4  1  0  0  0
  2  5  1  0  0  0
  3 36  1  0  0  0
  3 37  1  0  0  0
  3 38  1  0  0  0
  4 39  1  0  0  0
  4 40  1  0  0  0
  4 41  1  0  0  0
  5  6  1  0  0  0
  5 42  1  0  0  0
  6  7  2  0  0  0
  6  8  1  0  0  0
  8  9  1  0  0  0
  8 15  1  0  0  0
  8 43  1  0  0  0
  9 14  1  0  0  0
  9 10  2  0  0  0
 10 11  1  0  0  0
 10 44  1  0  0  0
 11 12  2  0  0  0
 11 45  1  0  0  0
 12 13  1  0  0  0
 13 14  2  0  0  0
 14 46  1  0  0  0
 15 16  1  0  0  0
 15 23  1  0  0  0
 16 17  2  0  0  0
 16 18  1  0  0  0
 18 22  1  0  0  0
 18 19  2  0  0  0
 19 20  1  0  0  0
 19 47  1  0  0  0
 20 21  2  0  0  0
 20 48  1  0  0  0
 21 22  1  0  0  0
 21 49  1  0  0  0
 23 32  1  0  0  0
 23 24  2  0  0  0
 24 25  1  0  0  0
 24 50  1  0  0  0
 25 26  2  0  0  0
 25 51  1  0  0  0
 26 27  1  0  0  0
 26 31  1  0  0  0
 27 28  1  0  0  0
 27 29  1  0  0  0
 27 30  1  0  0  0
 28 52  1  0  0  0
 28 53  1  0  0  0
 28 54  1  0  0  0
 29 55  1  0  0  0
 29 56  1  0  0  0
 29 57  1  0  0  0
 30 58  1  0  0  0
 30 59  1  0  0  0
 30 60  1  0  0  0
 31 32  2  0  0  0
 31 61  1  0  0  0
 32 62  1  0  0  0
M  END
$$$$
