
                    3D
 Schrodinger Suite 2019-4.
 87 90  0  0  1  0            999 V2000
  -21.9751   -7.8140  -26.6356 C   0  0  0  0  0  0
  -23.3037   -7.0333  -26.6077 C   0  0  0  0  0  0
  -24.4968   -7.9916  -26.5066 C   0  0  0  0  0  0
  -23.5059   -6.1023  -27.8239 C   0  0  0  0  0  0
  -22.4067   -5.0519  -28.1305 C   0  0  1  0  0  0
  -22.7125   -4.2913  -29.3482 N   0  0  0  0  0  0
  -23.8471   -3.6172  -29.6077 C   0  0  0  0  0  0
  -24.7236   -3.4532  -28.7621 O   0  0  0  0  0  0
  -24.0175   -3.0315  -31.0168 C   0  0  2  0  0  0
  -22.8155   -2.3578  -31.4874 N   0  0  0  0  0  0
  -22.3626   -1.1306  -31.2028 C   0  0  0  0  0  0
  -22.9480   -0.2697  -30.5543 O   0  0  0  0  0  0
  -20.9344   -0.9221  -31.5976 C   0  0  0  0  0  0
  -20.2180   -1.3007  -30.4432 O   0  0  0  0  0  0
  -20.0396   -2.6326  -30.1361 C   0  0  0  0  0  0
  -19.7738   -2.9023  -28.7862 C   0  0  0  0  0  0
  -19.1708   -4.1067  -28.3980 C   0  0  0  0  0  0
  -18.9605   -5.1208  -29.3374 C   0  0  0  0  0  0
  -18.3854   -6.2882  -28.9317 O   0  0  0  0  0  0
  -19.3415   -4.9153  -30.6784 C   0  0  0  0  0  0
  -19.8611   -3.6672  -31.0858 C   0  0  0  0  0  0
  -25.3930   -2.3422  -31.2958 C   0  0  0  0  0  0
  -26.2544   -3.2782  -32.1238 C   0  0  0  0  0  0
  -25.3917   -0.9997  -31.9776 C   0  0  0  0  0  0
  -21.9835   -4.1565  -26.9511 C   0  0  0  0  0  0
  -22.2599   -2.9579  -26.9340 O   0  0  0  0  0  0
  -21.2780   -4.7723  -25.9878 N   0  0  0  0  0  0
  -20.7946   -4.2830  -24.6945 C   0  0  2  0  0  0
  -21.7554   -3.3071  -24.0134 C   0  0  0  0  0  0
  -23.2165   -3.7799  -23.8845 C   0  0  1  0  0  0
  -23.4720   -4.8316  -22.8036 C   0  0  0  0  0  0
  -24.7449   -4.3742  -22.0791 C   0  0  0  0  0  0
  -24.9366   -3.0005  -22.4967 N   0  0  0  0  0  0
  -24.1389   -2.6418  -23.4955 C   0  0  0  0  0  0
  -24.1295   -1.5489  -24.0513 O   0  0  0  0  0  0
  -19.3300   -3.7877  -24.7648 C   0  0  0  0  0  0
  -19.0308   -2.5952  -24.7170 O   0  0  0  0  0  0
  -18.2443   -4.8040  -24.8982 C   0  0  0  0  0  0
  -16.9324   -4.5495  -25.0144 N   0  0  0  0  0  0
  -16.2247   -5.7506  -25.0200 C   0  0  0  0  0  0
  -14.8290   -5.9212  -25.0818 C   0  0  0  0  0  0
  -14.2397   -7.1949  -24.9758 C   0  0  0  0  0  0
  -15.0401   -8.3443  -24.8767 C   0  0  0  0  0  0
  -16.4365   -8.2149  -24.8781 C   0  0  0  0  0  0
  -17.0108   -6.9341  -24.9360 C   0  0  0  0  0  0
  -18.7006   -6.5142  -24.9179 S   0  0  0  0  0  0
  -21.2114   -7.3424  -26.0254 H   0  0  0  0  0  0
  -22.0888   -8.8223  -26.2369 H   0  0  0  0  0  0
  -21.5753   -7.8949  -27.6449 H   0  0  0  0  0  0
  -23.3242   -6.4406  -25.6937 H   0  0  0  0  0  0
  -25.4367   -7.4427  -26.4369 H   0  0  0  0  0  0
  -24.5577   -8.6429  -27.3790 H   0  0  0  0  0  0
  -24.4226   -8.6228  -25.6197 H   0  0  0  0  0  0
  -24.4665   -5.6126  -27.6752 H   0  0  0  0  0  0
  -23.6352   -6.7239  -28.7120 H   0  0  0  0  0  0
  -21.5182   -5.6229  -28.3953 H   0  0  0  0  0  0
  -22.0208   -4.3329  -30.0819 H   0  0  0  0  0  0
  -23.9896   -3.9282  -31.6399 H   0  0  0  0  0  0
  -22.1886   -2.9441  -32.0186 H   0  0  0  0  0  0
  -20.7601    0.1312  -31.8118 H   0  0  0  0  0  0
  -20.6718   -1.4726  -32.4980 H   0  0  0  0  0  0
  -19.9670   -2.1439  -28.0467 H   0  0  0  0  0  0
  -18.8856   -4.2620  -27.3749 H   0  0  0  0  0  0
  -18.0831   -6.2593  -28.0358 H   0  0  0  0  0  0
  -19.1856   -5.6965  -31.4090 H   0  0  0  0  0  0
  -20.0559   -3.5062  -32.1331 H   0  0  0  0  0  0
  -25.9314   -2.1640  -30.3671 H   0  0  0  0  0  0
  -25.7556   -3.6081  -33.0287 H   0  0  0  0  0  0
  -26.4289   -4.1478  -31.5244 H   0  0  0  0  0  0
  -27.2252   -2.8537  -32.3774 H   0  0  0  0  0  0
  -26.2919   -0.8575  -32.5673 H   0  0  0  0  0  0
  -25.3233   -0.1873  -31.2595 H   0  0  0  0  0  0
  -24.5565   -0.9592  -32.6505 H   0  0  0  0  0  0
  -21.1139   -5.7554  -26.1497 H   0  0  0  0  0  0
  -20.8202   -5.1544  -24.0412 H   0  0  0  0  0  0
  -21.7475   -2.4045  -24.6041 H   0  0  0  0  0  0
  -21.3661   -3.0412  -23.0296 H   0  0  0  0  0  0
  -23.6092   -4.1516  -24.8273 H   0  0  0  0  0  0
  -22.6407   -4.8729  -22.1085 H   0  0  0  0  0  0
  -23.5865   -5.8314  -23.2256 H   0  0  0  0  0  0
  -24.6485   -4.4557  -20.9967 H   0  0  0  0  0  0
  -25.6083   -4.9624  -22.3933 H   0  0  0  0  0  0
  -25.6173   -2.3911  -22.0677 H   0  0  0  0  0  0
  -14.2076   -5.0575  -25.1984 H   0  0  0  0  0  0
  -13.1640   -7.2929  -24.9782 H   0  0  0  0  0  0
  -14.5788   -9.3198  -24.8208 H   0  0  0  0  0  0
  -17.0656   -9.0894  -24.8151 H   0  0  0  0  0  0
  1  2  1  0  0  0
  1 47  1  0  0  0
  1 48  1  0  0  0
  1 49  1  0  0  0
  2  3  1  0  0  0
  2  4  1  0  0  0
  2 50  1  0  0  0
  3 51  1  0  0  0
  3 52  1  0  0  0
  3 53  1  0  0  0
  4  5  1  0  0  0
  4 54  1  0  0  0
  4 55  1  0  0  0
  5  6  1  0  0  0
  5 25  1  0  0  0
  5 56  1  0  0  0
  6  7  1  0  0  0
  6 57  1  0  0  0
  7  8  2  0  0  0
  7  9  1  0  0  0
  9 10  1  0  0  0
  9 22  1  0  0  0
  9 58  1  0  0  0
 10 11  1  0  0  0
 10 59  1  0  0  0
 11 12  2  0  0  0
 11 13  1  0  0  0
 13 14  1  0  0  0
 13 60  1  0  0  0
 13 61  1  0  0  0
 14 15  1  0  0  0
 15 21  1  0  0  0
 15 16  2  0  0  0
 16 17  1  0  0  0
 16 62  1  0  0  0
 17 18  2  0  0  0
 17 63  1  0  0  0
 18 19  1  0  0  0
 18 20  1  0  0  0
 19 64  1  0  0  0
 20 21  2  0  0  0
 20 65  1  0  0  0
 21 66  1  0  0  0
 22 23  1  0  0  0
 22 24  1  0  0  0
 22 67  1  0  0  0
 23 68  1  0  0  0
 23 69  1  0  0  0
 23 70  1  0  0  0
 24 71  1  0  0  0
 24 72  1  0  0  0
 24 73  1  0  0  0
 25 26  2  0  0  0
 25 27  1  0  0  0
 27 28  1  0  0  0
 27 74  1  0  0  0
 28 29  1  0  0  0
 28 36  1  0  0  0
 28 75  1  0  0  0
 29 30  1  0  0  0
 29 76  1  0  0  0
 29 77  1  0  0  0
 30 34  1  0  0  0
 30 31  1  0  0  0
 30 78  1  0  0  0
 31 32  1  0  0  0
 31 79  1  0  0  0
 31 80  1  0  0  0
 32 33  1  0  0  0
 32 81  1  0  0  0
 32 82  1  0  0  0
 33 34  1  0  0  0
 33 83  1  0  0  0
 34 35  2  0  0  0
 36 37  2  0  0  0
 36 38  1  0  0  0
 38 46  1  0  0  0
 38 39  2  0  0  0
 39 40  1  0  0  0
 40 45  1  0  0  0
 40 41  2  0  0  0
 41 42  1  0  0  0
 41 84  1  0  0  0
 42 43  2  0  0  0
 42 85  1  0  0  0
 43 44  1  0  0  0
 43 86  1  0  0  0
 44 45  2  0  0  0
 44 87  1  0  0  0
 45 46  1  0  0  0
M  END
$$$$
