
                    3D
 Schrodinger Suite 2019-4.
 78 81  0  0  1  0            999 V2000
  -21.1911   -7.3668  -30.7652 C   0  0  0  0  0  0
  -20.7575   -5.9224  -31.0490 C   0  0  0  0  0  0
  -19.5929   -5.9483  -32.0385 C   0  0  0  0  0  0
  -20.4025   -5.1454  -29.7566 C   0  0  0  0  0  0
  -21.5824   -4.9835  -28.7714 C   0  0  2  0  0  0
  -22.6584   -4.2759  -29.4585 N   0  0  0  0  0  0
  -23.9194   -4.1897  -29.0183 C   0  0  0  0  0  0
  -24.2892   -4.6169  -27.9249 O   0  0  0  0  0  0
  -24.9325   -3.5960  -29.9809 C   0  0  0  0  0  0
  -24.4424   -2.3948  -30.5448 O   0  0  0  0  0  0
  -25.2739   -1.7605  -31.4383 C   0  0  0  0  0  0
  -25.1066   -0.3832  -31.5854 C   0  0  0  0  0  0
  -25.8769    0.3367  -32.5189 C   0  0  0  0  0  0
  -26.7901   -0.2931  -33.3742 C   0  0  0  0  0  0
  -27.0498   -1.6616  -33.1361 C   0  0  0  0  0  0
  -26.2891   -2.3868  -32.1963 C   0  0  0  0  0  0
  -27.4693    0.4477  -34.3668 N   0  0  0  0  0  0
  -28.7063   -0.0559  -34.8364 C   0  0  0  0  0  0
  -26.8754    1.4166  -35.2666 C   0  0  0  0  0  0
  -21.1509   -4.2028  -27.5239 C   0  0  0  0  0  0
  -20.9497   -2.9967  -27.5867 O   0  0  0  0  0  0
  -21.0312   -4.9002  -26.3853 N   0  0  0  0  0  0
  -20.7265   -4.3643  -25.0544 C   0  0  2  0  0  0
  -21.7502   -3.3090  -24.5964 C   0  0  0  0  0  0
  -23.1917   -3.8006  -24.3884 C   0  0  2  0  0  0
  -24.2031   -2.6497  -24.2918 C   0  0  0  0  0  0
  -25.1356   -2.9928  -23.1300 C   0  0  0  0  0  0
  -24.4359   -4.0226  -22.4004 N   0  0  0  0  0  0
  -23.3989   -4.5243  -23.0660 C   0  0  0  0  0  0
  -22.6872   -5.4456  -22.6772 O   0  0  0  0  0  0
  -19.2654   -3.8562  -24.9757 C   0  0  0  0  0  0
  -18.9761   -2.6639  -24.8842 O   0  0  0  0  0  0
  -18.1809   -4.8723  -25.0293 C   0  0  0  0  0  0
  -16.8677   -4.6199  -25.1177 N   0  0  0  0  0  0
  -16.1639   -5.8207  -25.0595 C   0  0  0  0  0  0
  -14.7686   -5.9911  -25.0976 C   0  0  0  0  0  0
  -14.1819   -7.2623  -24.9520 C   0  0  0  0  0  0
  -14.9849   -8.4083  -24.8227 C   0  0  0  0  0  0
  -16.3812   -8.2769  -24.8312 C   0  0  0  0  0  0
  -16.9528   -6.9994  -24.9391 C   0  0  0  0  0  0
  -18.6397   -6.5812  -24.9524 S   0  0  0  0  0  0
  -22.1199   -7.4086  -30.1985 H   0  0  0  0  0  0
  -21.3612   -7.9114  -31.6935 H   0  0  0  0  0  0
  -20.4277   -7.9067  -30.2058 H   0  0  0  0  0  0
  -21.5790   -5.4126  -31.5529 H   0  0  0  0  0  0
  -19.1931   -4.9574  -32.2346 H   0  0  0  0  0  0
  -18.7973   -6.5769  -31.6463 H   0  0  0  0  0  0
  -19.8980   -6.3814  -32.9908 H   0  0  0  0  0  0
  -20.0519   -4.1568  -30.0363 H   0  0  0  0  0  0
  -19.5637   -5.6343  -29.2584 H   0  0  0  0  0  0
  -21.9397   -5.9652  -28.4585 H   0  0  0  0  0  0
  -22.4377   -3.8670  -30.3543 H   0  0  0  0  0  0
  -25.8547   -3.4004  -29.4358 H   0  0  0  0  0  0
  -25.1076   -4.3466  -30.7500 H   0  0  0  0  0  0
  -24.4028    0.1224  -30.9426 H   0  0  0  0  0  0
  -25.8040    1.4026  -32.5610 H   0  0  0  0  0  0
  -27.7830   -2.2005  -33.7170 H   0  0  0  0  0  0
  -26.4779   -3.4405  -32.1225 H   0  0  0  0  0  0
  -29.3356    0.7413  -35.2345 H   0  0  0  0  0  0
  -28.4955   -0.7778  -35.6169 H   0  0  0  0  0  0
  -29.1869   -0.5111  -33.9764 H   0  0  0  0  0  0
  -27.5501    2.2466  -35.4696 H   0  0  0  0  0  0
  -25.9653    1.8153  -34.8615 H   0  0  0  0  0  0
  -26.6821    0.9529  -36.2303 H   0  0  0  0  0  0
  -21.2151   -5.8931  -26.4352 H   0  0  0  0  0  0
  -20.8273   -5.1955  -24.3601 H   0  0  0  0  0  0
  -21.7851   -2.4998  -25.3135 H   0  0  0  0  0  0
  -21.3879   -2.8970  -23.6567 H   0  0  0  0  0  0
  -23.4877   -4.4722  -25.1945 H   0  0  0  0  0  0
  -24.7698   -2.5620  -25.2124 H   0  0  0  0  0  0
  -23.7090   -1.6965  -24.1131 H   0  0  0  0  0  0
  -26.0566   -3.4227  -23.5110 H   0  0  0  0  0  0
  -25.3889   -2.1387  -22.5052 H   0  0  0  0  0  0
  -24.7509   -4.3583  -21.5015 H   0  0  0  0  0  0
  -14.1460   -5.1313  -25.2358 H   0  0  0  0  0  0
  -13.1063   -7.3607  -24.9516 H   0  0  0  0  0  0
  -14.5254   -9.3808  -24.7368 H   0  0  0  0  0  0
  -17.0121   -9.1477  -24.7424 H   0  0  0  0  0  0
  1  2  1  0  0  0
  1 42  1  0  0  0
  1 43  1  0  0  0
  1 44  1  0  0  0
  2  3  1  0  0  0
  2  4  1  0  0  0
  2 45  1  0  0  0
  3 46  1  0  0  0
  3 47  1  0  0  0
  3 48  1  0  0  0
  4  5  1  0  0  0
  4 49  1  0  0  0
  4 50  1  0  0  0
  5  6  1  0  0  0
  5 20  1  0  0  0
  5 51  1  0  0  0
  6  7  1  0  0  0
  6 52  1  0  0  0
  7  8  2  0  0  0
  7  9  1  0  0  0
  9 10  1  0  0  0
  9 53  1  0  0  0
  9 54  1  0  0  0
 10 11  1  0  0  0
 11 16  1  0  0  0
 11 12  2  0  0  0
 12 13  1  0  0  0
 12 55  1  0  0  0
 13 14  2  0  0  0
 13 56  1  0  0  0
 14 15  1  0  0  0
 14 17  1  0  0  0
 15 16  2  0  0  0
 15 57  1  0  0  0
 16 58  1  0  0  0
 17 18  1  0  0  0
 17 19  1  0  0  0
 18 59  1  0  0  0
 18 60  1  0  0  0
 18 61  1  0  0  0
 19 62  1  0  0  0
 19 63  1  0  0  0
 19 64  1  0  0  0
 20 21  2  0  0  0
 20 22  1  0  0  0
 22 23  1  0  0  0
 22 65  1  0  0  0
 23 24  1  0  0  0
 23 31  1  0  0  0
 23 66  1  0  0  0
 24 25  1  0  0  0
 24 67  1  0  0  0
 24 68  1  0  0  0
 25 29  1  0  0  0
 25 26  1  0  0  0
 25 69  1  0  0  0
 26 27  1  0  0  0
 26 70  1  0  0  0
 26 71  1  0  0  0
 27 28  1  0  0  0
 27 72  1  0  0  0
 27 73  1  0  0  0
 28 29  1  0  0  0
 28 74  1  0  0  0
 29 30  2  0  0  0
 31 32  2  0  0  0
 31 33  1  0  0  0
 33 41  1  0  0  0
 33 34  2  0  0  0
 34 35  1  0  0  0
 35 40  1  0  0  0
 35 36  2  0  0  0
 36 37  1  0  0  0
 36 75  1  0  0  0
 37 38  2  0  0  0
 37 76  1  0  0  0
 38 39  1  0  0  0
 38 77  1  0  0  0
 39 40  2  0  0  0
 39 78  1  0  0  0
 40 41  1  0  0  0
M  END
$$$$
